Measured thermophysical data. The use of organic calibration standards in the enthalpy calibration of differential scanning calorimeters
Source: Thermochim. Acta, 2012, 10.1016/j.tca.2012.03.028
Compound 1: benzoic acid, C7H6O2, InChI=1S/C7H6O2/c8-7(9)6-4-2-1-3-5-6/h1-5H,(H,8,9)
Compound 2: N-phenylethanamide, C8H9NO, InChI=1S/C8H9NO/c1-7(10)9-8-5-3-2-4-6-8/h2-6H,1H3,(H,9,10)
Compound 3: naphthalene, C10H8, InChI=1S/C10H8/c1-2-6-10-8-4-3-7-9(10)5-1/h1-8H
Compound 4: biphenyl, C12H10, InChI=1S/C12H10/c1-3-7-11(8-4-1)12-9-5-2-6-10-12/h1-10H
Compound 5: phenyl salicylate, C13H10O3, InChI=1S/C13H10O3/c14-12-9-5-4-8-11(12)13(15)16-10-6-2-1-3-7-10/h1-9,14H
Compound 6: 1,2-diphenylethanedione, C14H10O2, InChI=1S/C14H10O2/c15-13(11-7-3-1-4-8-11)14(16)12-9-5-2-6-10-12/h1-10H
Compound 7: 2,2-diphenylethanoic acid, C14H12O2, InChI=1S/C14H12O2/c15-14(16)13(11-7-3-1-4-8-11)12-9-5-2-6-10-12/h1-10,13H,(H,15,16)

System: benzoic acid; phases: Crystal, Liquid, Air at 1 atmosphere
Property: Normal melting temperature, K (Crystal); method: Differential scanning calorimeter
Normal melting temperature, K	uncertainty
395.5	

System: benzoic acid; phases: Crystal, Liquid, Gas
Property: Molar enthalpy of transition or fusion, kJ/mol (Crystal); method: Differential scanning calorimeter
Molar enthalpy of transition or fusion, kJ/mol	uncertainty
18	

System: N-phenylethanamide; phases: Crystal, Liquid, Air at 1 atmosphere
Property: Normal melting temperature, K (Crystal); method: Differential scanning calorimeter
Normal melting temperature, K	uncertainty
387.5	

System: N-phenylethanamide; phases: Crystal, Liquid, Gas
Property: Molar enthalpy of transition or fusion, kJ/mol (Crystal); method: Differential scanning calorimeter
Molar enthalpy of transition or fusion, kJ/mol	uncertainty
21.83	

System: naphthalene; phases: Crystal, Liquid, Air at 1 atmosphere
Property: Normal melting temperature, K (Crystal); method: Differential scanning calorimeter
Normal melting temperature, K	uncertainty
353.4	

System: naphthalene; phases: Crystal, Liquid, Gas
Property: Molar enthalpy of transition or fusion, kJ/mol (Crystal); method: Differential scanning calorimeter
Molar enthalpy of transition or fusion, kJ/mol	uncertainty
18.83	

System: biphenyl; phases: Crystal, Liquid, Air at 1 atmosphere
Property: Normal melting temperature, K (Crystal); method: Differential scanning calorimeter
Normal melting temperature, K	uncertainty
342.1	

System: biphenyl; phases: Crystal, Liquid, Gas
Property: Molar enthalpy of transition or fusion, kJ/mol (Crystal); method: Differential scanning calorimeter
Molar enthalpy of transition or fusion, kJ/mol	uncertainty
18.51	

System: phenyl salicylate; phases: Crystal, Liquid, Air at 1 atmosphere
Property: Normal melting temperature, K (Crystal); method: Differential scanning calorimeter
Normal melting temperature, K	uncertainty
314.9	

System: phenyl salicylate; phases: Crystal, Liquid, Gas
Property: Molar enthalpy of transition or fusion, kJ/mol (Crystal); method: Differential scanning calorimeter
Molar enthalpy of transition or fusion, kJ/mol	uncertainty
19	

System: 1,2-diphenylethanedione; phases: Crystal, Liquid, Air at 1 atmosphere
Property: Normal melting temperature, K (Crystal); method: Differential scanning calorimeter
Normal melting temperature, K	uncertainty
368	

System: 1,2-diphenylethanedione; phases: Crystal, Liquid, Gas
Property: Molar enthalpy of transition or fusion, kJ/mol (Crystal); method: Differential scanning calorimeter
Molar enthalpy of transition or fusion, kJ/mol	uncertainty
23.31	

System: 2,2-diphenylethanoic acid; phases: Crystal, Liquid, Air at 1 atmosphere
Property: Normal melting temperature, K (Crystal); method: Differential scanning calorimeter
Normal melting temperature, K	uncertainty
420.3	

System: 2,2-diphenylethanoic acid; phases: Crystal, Liquid, Gas
Property: Molar enthalpy of transition or fusion, kJ/mol (Crystal); method: Differential scanning calorimeter
Molar enthalpy of transition or fusion, kJ/mol	uncertainty
31.18	
