Measured thermophysical data. Volumetric properties of betaine hydrochloride drug in aqueous NaCl and KCl solutions at different temperatures
Source: Thermochim. Acta, 2014, 10.1016/j.tca.2014.10.019
Compound 1: betaine hydrochloride, C5H12ClNO2, InChI=1S/C5H11NO2.ClH/c1-6(2,3)4-5(7)8;/h4H2,1-3H3;1H, purity 99%
Compound 2: sodium chloride, ClNa, InChI=1S/ClH.Na/h1H;/q;+1/p-1, purity 99%
Compound 3: potassium chloride, ClK, InChI=1S/ClH.K/h1H;/q;+1/p-1, purity 99%
Compound 4: water, H2O, InChI=1S/H2O/h1H2

System: betaine hydrochloride + sodium chloride + water; phases: Liquid
Fixed: Pressure, kPa = 100
Property: Mass density, kg/m3 (Liquid); method: Vibrating tube method
Temperature, K	Molality, mol/kg of betaine hydrochloride	Solvent: Molality, mol/kg of sodium chloride	Mass density, kg/m3	uncertainty
293.15	0	0.1	1002.42	0.16
293.15	0.00949	0.1	1002.75	0.16
293.15	0.01968	0.1	1003.09	0.16
293.15	0.02922	0.1	1003.42	0.16
293.15	0.03906	0.1	1003.74	0.16
293.15	0.05026	0.1	1004.1	0.16
293.15	0.05896	0.1	1004.38	0.16
293.15	0	0.2	1006.67	0.16
293.15	0.00968	0.2	1007	0.16
293.15	0.02043	0.2	1007.36	0.16
293.15	0.02942	0.2	1007.65	0.16
293.15	0.03792	0.2	1007.93	0.16
293.15	0.04799	0.2	1008.25	0.16
293.15	0.05952	0.2	1008.62	0.16
293.15	0	0.3	1010.64	0.16
293.15	0.0097	0.3	1010.96	0.16
293.15	0.02097	0.3	1011.33	0.17
293.15	0.03052	0.3	1011.63	0.17
293.15	0.04055	0.3	1011.95	0.17
293.15	0.04969	0.3	1012.23	0.17
293.15	0.06009	0.3	1012.54	0.17
298.15	0	0.1	1001.21	0.16
298.15	0.00949	0.1	1001.53	0.16
298.15	0.01968	0.1	1001.88	0.16
298.15	0.02922	0.1	1002.19	0.16
298.15	0.03906	0.1	1002.52	0.16
298.15	0.05026	0.1	1002.87	0.16
298.15	0.05896	0.1	1003.15	0.16
298.15	0	0.2	1005.41	0.16
298.15	0.00968	0.2	1005.73	0.16
298.15	0.02043	0.2	1006.09	0.16
298.15	0.02942	0.2	1006.38	0.16
298.15	0.03792	0.2	1006.65	0.16
298.15	0.04799	0.2	1006.97	0.16
298.15	0.05952	0.2	1007.32	0.16
298.15	0	0.3	1009.34	0.16
298.15	0.0097	0.3	1009.65	0.16
298.15	0.02097	0.3	1010.02	0.16
298.15	0.03052	0.3	1010.32	0.16
298.15	0.04055	0.3	1010.63	0.16
298.15	0.04969	0.3	1010.9	0.16
298.15	0.06009	0.3	1011.21	0.16
303.15	0	0.1	999.77	0.16
303.15	0.00949	0.1	1000.09	0.16
303.15	0.01968	0.1	1000.43	0.16
303.15	0.02922	0.1	1000.74	0.16
303.15	0.03906	0.1	1001.06	0.16
303.15	0.05026	0.1	1001.41	0.16
303.15	0.05896	0.1	1001.68	0.16
303.15	0	0.2	1003.93	0.16
303.15	0.00968	0.2	1004.25	0.16
303.15	0.02043	0.2	1004.6	0.16
303.15	0.02942	0.2	1004.89	0.16
303.15	0.03792	0.2	1005.16	0.16
303.15	0.04799	0.2	1005.47	0.16
303.15	0.05952	0.2	1005.82	0.16
303.15	0	0.3	1007.81	0.16
303.15	0.0097	0.3	1008.13	0.16
303.15	0.02097	0.3	1008.48	0.16
303.15	0.03052	0.3	1008.78	0.16
303.15	0.04055	0.3	1009.08	0.16
303.15	0.04969	0.3	1009.36	0.16
303.15	0.06009	0.3	1009.66	0.16
308.15	0	0.1	998.12	0.16
308.15	0.00949	0.1	998.44	0.16
308.15	0.01968	0.1	998.77	0.16
308.15	0.02922	0.1	999.08	0.16
308.15	0.03906	0.1	999.4	0.16
308.15	0.05026	0.1	999.74	0.16
308.15	0.05896	0.1	1000.01	0.16
308.15	0	0.2	1002.25	0.16
308.15	0.00968	0.2	1002.57	0.16
308.15	0.02043	0.2	1002.91	0.16
308.15	0.02942	0.2	1003.2	0.16
308.15	0.03792	0.2	1003.46	0.16
308.15	0.04799	0.2	1003.77	0.16
308.15	0.05952	0.2	1004.12	0.16
308.15	0	0.3	1006.1	0.16
308.15	0.0097	0.3	1006.41	0.16
308.15	0.02097	0.3	1006.76	0.16
308.15	0.03052	0.3	1007.05	0.16
308.15	0.04055	0.3	1007.36	0.16
308.15	0.04969	0.3	1007.62	0.16
308.15	0.06009	0.3	1007.93	0.16
313.15	0	0.1	996.28	0.16
313.15	0.00949	0.1	996.59	0.16
313.15	0.01968	0.1	996.93	0.16
313.15	0.02922	0.1	997.23	0.16
313.15	0.03906	0.1	997.54	0.16
313.15	0.05026	0.1	997.88	0.16
313.15	0.05896	0.1	998.15	0.16
313.15	0	0.2	1000.38	0.16
313.15	0.00968	0.2	1000.69	0.16
313.15	0.02043	0.2	1001.03	0.16
313.15	0.02942	0.2	1001.31	0.16
313.15	0.03792	0.2	1001.58	0.16
313.15	0.04799	0.2	1001.88	0.16
313.15	0.05952	0.2	1002.22	0.16
313.15	0	0.3	1004.2	0.16
313.15	0.0097	0.3	1004.51	0.16
313.15	0.02097	0.3	1004.85	0.16
313.15	0.03052	0.3	1005.14	0.16
313.15	0.04055	0.3	1005.44	0.16
313.15	0.04969	0.3	1005.7	0.16
313.15	0.06009	0.3	1006	0.16

System: betaine hydrochloride + sodium chloride + water; phases: Liquid
Fixed: Pressure, kPa = 100
Fixed: Frequency, MHz = 3
Property: Speed of sound, m/s (Liquid); method: Sing-around technique in a fixed-path interferometer
Temperature, K	Molality, mol/kg of betaine hydrochloride	Solvent: Molality, mol/kg of sodium chloride	Speed of sound, m/s	uncertainty
293.15	0	0.1	1489.33	1.41
293.15	0.00949	0.1	1490.35	1.41
293.15	0.01968	0.1	1491.44	1.41
293.15	0.02922	0.1	1492.43	1.41
293.15	0.03906	0.1	1493.41	1.41
293.15	0.05026	0.1	1494.5	1.41
293.15	0.05896	0.1	1495.29	1.41
293.15	0	0.2	1496.19	1.41
293.15	0.00968	0.2	1497.24	1.41
293.15	0.02043	0.2	1498.43	1.41
293.15	0.02942	0.2	1499.37	1.41
293.15	0.03792	0.2	1500.22	1.41
293.15	0.04799	0.2	1501.22	1.42
293.15	0.05952	0.2	1502.3	1.42
293.15	0	0.3	1502.35	1.42
293.15	0.0097	0.3	1503.42	1.42
293.15	0.02097	0.3	1504.65	1.42
293.15	0.03052	0.3	1505.63	1.42
293.15	0.04055	0.3	1506.69	1.42
293.15	0.04969	0.3	1507.59	1.42
293.15	0.06009	0.3	1508.56	1.42
298.15	0	0.1	1503.31	1.42
298.15	0.00949	0.1	1504.32	1.42
298.15	0.01968	0.1	1505.38	1.42
298.15	0.02922	0.1	1506.32	1.42
298.15	0.03906	0.1	1507.31	1.42
298.15	0.05026	0.1	1508.43	1.42
298.15	0.05896	0.1	1509.23	1.42
298.15	0	0.2	1509.89	1.42
298.15	0.00968	0.2	1510.92	1.42
298.15	0.02043	0.2	1512.07	1.42
298.15	0.02942	0.2	1512.99	1.42
298.15	0.03792	0.2	1513.82	1.42
298.15	0.04799	0.2	1514.78	1.42
298.15	0.05952	0.2	1515.89	1.42
298.15	0	0.3	1515.8	1.42
298.15	0.0097	0.3	1516.84	1.42
298.15	0.02097	0.3	1518.02	1.42
298.15	0.03052	0.3	1519	1.42
298.15	0.04055	0.3	1520.01	1.42
298.15	0.04969	0.3	1520.89	1.42
298.15	0.06009	0.3	1521.83	1.42
303.15	0	0.1	1515.48	1.42
303.15	0.00949	0.1	1516.48	1.42
303.15	0.01968	0.1	1517.53	1.42
303.15	0.02922	0.1	1518.5	1.42
303.15	0.03906	0.1	1519.46	1.42
303.15	0.05026	0.1	1520.49	1.42
303.15	0.05896	0.1	1521.19	1.42
303.15	0	0.2	1521.8	1.42
303.15	0.00968	0.2	1522.83	1.42
303.15	0.02043	0.2	1523.93	1.42
303.15	0.02942	0.2	1524.86	1.42
303.15	0.03792	0.2	1525.7	1.42
303.15	0.04799	0.2	1526.59	1.42
303.15	0.05952	0.2	1527.67	1.42
303.15	0	0.3	1527.55	1.42
303.15	0.0097	0.3	1528.59	1.42
303.15	0.02097	0.3	1529.79	1.42
303.15	0.03052	0.3	1530.74	1.42
303.15	0.04055	0.3	1531.7	1.42
303.15	0.04969	0.3	1532.64	1.42
303.15	0.06009	0.3	1533.59	1.42
308.15	0	0.1	1525.88	1.42
308.15	0.00949	0.1	1526.86	1.42
308.15	0.01968	0.1	1527.9	1.42
308.15	0.02922	0.1	1528.82	1.42
308.15	0.03906	0.1	1529.76	1.42
308.15	0.05026	0.1	1530.85	1.42
308.15	0.05896	0.1	1531.59	1.42
308.15	0	0.2	1532.03	1.42
308.15	0.00968	0.2	1533.03	1.42
308.15	0.02043	0.2	1534.12	1.42
308.15	0.02942	0.2	1534.99	1.42
308.15	0.03792	0.2	1535.75	1.42
308.15	0.04799	0.2	1536.72	1.42
308.15	0.05952	0.2	1537.69	1.42
308.15	0	0.3	1537.63	1.42
308.15	0.0097	0.3	1538.64	1.42
308.15	0.02097	0.3	1539.76	1.42
308.15	0.03052	0.3	1540.69	1.42
308.15	0.04055	0.3	1541.67	1.42
308.15	0.04969	0.3	1542.51	1.42
308.15	0.06009	0.3	1543.44	1.42
313.15	0	0.1	1534.76	1.42
313.15	0.00949	0.1	1535.72	1.42
313.15	0.01968	0.1	1536.75	1.42
313.15	0.02922	0.1	1537.65	1.42
313.15	0.03906	0.1	1538.53	1.42
313.15	0.05026	0.1	1539.62	1.42
313.15	0.05896	0.1	1540.35	1.42
313.15	0	0.2	1540.67	1.42
313.15	0.00968	0.2	1541.66	1.42
313.15	0.02043	0.2	1542.7	1.42
313.15	0.02942	0.2	1543.53	1.42
313.15	0.03792	0.2	1544.34	1.42
313.15	0.04799	0.2	1545.26	1.42
313.15	0.05952	0.2	1546.25	1.42
313.15	0	0.3	1546.23	1.42
313.15	0.0097	0.3	1547.22	1.42
313.15	0.02097	0.3	1548.36	1.42
313.15	0.03052	0.3	1549.27	1.42
313.15	0.04055	0.3	1550.26	1.42
313.15	0.04969	0.3	1551.08	1.42
313.15	0.06009	0.3	1551.99	1.42

System: betaine hydrochloride + potassium chloride + water; phases: Liquid
Fixed: Pressure, kPa = 100
Property: Mass density, kg/m3 (Liquid); method: Vibrating tube method
Temperature, K	Molality, mol/kg of betaine hydrochloride	Solvent: Molality, mol/kg of potassium chloride	Mass density, kg/m3	uncertainty
293.15	0	0.1	1002.99	0.16
293.15	0.00891	0.1	1003.31	0.16
293.15	0.01924	0.1	1003.66	0.16
293.15	0.02749	0.1	1003.95	0.16
293.15	0.03999	0.1	1004.36	0.16
293.15	0.04956	0.1	1004.67	0.16
293.15	0.05943	0.1	1004.99	0.16
293.15	0	0.2	1007.72	0.16
293.15	0.00888	0.2	1008.03	0.16
293.15	0.01993	0.2	1008.4	0.16
293.15	0.02938	0.2	1008.72	0.16
293.15	0.04163	0.2	1009.12	0.16
293.15	0.04853	0.2	1009.34	0.16
293.15	0.05846	0.2	1009.64	0.16
293.15	0	0.3	1013.42	0.17
293.15	0.0099	0.3	1013.75	0.17
293.15	0.01907	0.3	1014.06	0.17
293.15	0.02932	0.3	1014.39	0.17
293.15	0.03865	0.3	1014.68	0.17
293.15	0.04616	0.3	1014.91	0.17
298.15	0	0.1	1001.79	0.16
298.15	0.00891	0.1	1002.1	0.16
298.15	0.01924	0.1	1002.45	0.16
298.15	0.02749	0.1	1002.73	0.16
298.15	0.03999	0.1	1003.14	0.16
298.15	0.04956	0.1	1003.45	0.16
298.15	0.05943	0.1	1003.76	0.16
298.15	0	0.2	1006.48	0.16
298.15	0.00888	0.2	1006.78	0.16
298.15	0.01993	0.2	1007.15	0.16
298.15	0.02938	0.2	1007.46	0.16
298.15	0.04163	0.2	1007.86	0.16
298.15	0.04853	0.2	1008.07	0.16
298.15	0.05846	0.2	1008.37	0.16
298.15	0	0.3	1012.13	0.17
298.15	0.0099	0.3	1012.46	0.17
298.15	0.01907	0.3	1012.76	0.17
298.15	0.02932	0.3	1013.08	0.17
298.15	0.03865	0.3	1013.38	0.17
298.15	0.04616	0.3	1013.61	0.17
303.15	0	0.1	1000.36	0.16
303.15	0.00891	0.1	1000.67	0.16
303.15	0.01924	0.1	1001.01	0.16
303.15	0.02749	0.1	1001.29	0.16
303.15	0.03999	0.1	1001.69	0.16
303.15	0.04956	0.1	1002	0.16
303.15	0.05943	0.1	1002.3	0.16
303.15	0	0.2	1005.02	0.16
303.15	0.00888	0.2	1005.32	0.16
303.15	0.01993	0.2	1005.68	0.16
303.15	0.02938	0.2	1005.99	0.16
303.15	0.04163	0.2	1006.38	0.16
303.15	0.04853	0.2	1006.59	0.16
303.15	0.05846	0.2	1006.89	0.16
303.15	0	0.3	1010.63	0.16
303.15	0.0099	0.3	1010.95	0.16
303.15	0.01907	0.3	1011.25	0.17
303.15	0.02932	0.3	1011.57	0.17
303.15	0.03865	0.3	1011.86	0.17
303.15	0.04616	0.3	1012.09	0.17
308.15	0	0.1	998.71	0.16
308.15	0.00891	0.1	999.02	0.16
308.15	0.01924	0.1	999.36	0.16
308.15	0.02749	0.1	999.63	0.16
308.15	0.03999	0.1	1000.03	0.16
308.15	0.04956	0.1	1000.33	0.16
308.15	0.05943	0.1	1000.64	0.16
308.15	0	0.2	1003.35	0.16
308.15	0.00888	0.2	1003.65	0.16
308.15	0.01993	0.2	1004.01	0.16
308.15	0.02938	0.2	1004.31	0.16
308.15	0.04163	0.2	1004.7	0.16
308.15	0.04853	0.2	1004.91	0.16
308.15	0.05846	0.2	1005.2	0.16
308.15	0	0.3	1008.94	0.16
308.15	0.0099	0.3	1009.26	0.16
308.15	0.01907	0.3	1009.55	0.16
308.15	0.02932	0.3	1009.87	0.16
308.15	0.03865	0.3	1010.16	0.16
308.15	0.04616	0.3	1010.38	0.16
313.15	0	0.1	996.88	0.16
313.15	0.00891	0.1	997.18	0.16
313.15	0.01924	0.1	997.52	0.16
313.15	0.02749	0.1	997.78	0.16
313.15	0.03999	0.1	998.18	0.16
313.15	0.04956	0.1	998.47	0.16
313.15	0.05943	0.1	998.77	0.16
313.15	0	0.2	1001.49	0.16
313.15	0.00888	0.2	1001.78	0.16
313.15	0.01993	0.2	1002.14	0.16
313.15	0.02938	0.2	1002.44	0.16
313.15	0.04163	0.2	1002.82	0.16
313.15	0.04853	0.2	1003.03	0.16
313.15	0.05846	0.2	1003.32	0.16
313.15	0	0.3	1007.02	0.16
313.15	0.0099	0.3	1007.34	0.16
313.15	0.01907	0.3	1007.63	0.16
313.15	0.02932	0.3	1007.94	0.16
313.15	0.03865	0.3	1008.23	0.16
313.15	0.04616	0.3	1008.45	0.16

System: betaine hydrochloride + potassium chloride + water; phases: Liquid
Fixed: Pressure, kPa = 100
Fixed: Frequency, MHz = 3
Property: Speed of sound, m/s (Liquid); method: Sing-around technique in a fixed-path interferometer
Temperature, K	Molality, mol/kg of betaine hydrochloride	Solvent: Molality, mol/kg of potassium chloride	Speed of sound, m/s	uncertainty
293.15	0	0.1	1488.5	1.41
293.15	0.00891	0.1	1489.46	1.41
293.15	0.01924	0.1	1490.55	1.41
293.15	0.02749	0.1	1491.4	1.41
293.15	0.03999	0.1	1492.68	1.41
293.15	0.04956	0.1	1493.63	1.41
293.15	0.05943	0.1	1494.58	1.41
293.15	0	0.2	1493.78	1.41
293.15	0.00888	0.2	1494.74	1.41
293.15	0.01993	0.2	1495.94	1.41
293.15	0.02938	0.2	1496.93	1.41
293.15	0.04163	0.2	1498.14	1.41
293.15	0.04853	0.2	1498.78	1.41
293.15	0.05846	0.2	1499.8	1.41
293.15	0	0.3	1497.6	1.41
293.15	0.0099	0.3	1498.69	1.41
293.15	0.01907	0.3	1499.71	1.41
293.15	0.02932	0.3	1500.78	1.42
293.15	0.03865	0.3	1501.75	1.42
293.15	0.04616	0.3	1502.46	1.42
298.15	0	0.1	1502.45	1.42
298.15	0.00891	0.1	1503.4	1.42
298.15	0.01924	0.1	1504.48	1.42
298.15	0.02749	0.1	1505.34	1.42
298.15	0.03999	0.1	1506.65	1.42
298.15	0.04956	0.1	1507.66	1.42
298.15	0.05943	0.1	1508.61	1.42
298.15	0	0.2	1507.35	1.42
298.15	0.00888	0.2	1508.3	1.42
298.15	0.01993	0.2	1509.5	1.42
298.15	0.02938	0.2	1510.48	1.42
298.15	0.04163	0.2	1511.79	1.42
298.15	0.04853	0.2	1512.49	1.42
298.15	0.05846	0.2	1513.53	1.42
298.15	0	0.3	1510.98	1.42
298.15	0.0099	0.3	1512.06	1.42
298.15	0.01907	0.3	1513.04	1.42
298.15	0.02932	0.3	1514.15	1.42
298.15	0.03865	0.3	1515.1	1.42
298.15	0.04616	0.3	1515.89	1.42
303.15	0	0.1	1514.56	1.42
303.15	0.00891	0.1	1515.51	1.42
303.15	0.01924	0.1	1516.61	1.42
303.15	0.02749	0.1	1517.46	1.42
303.15	0.03999	0.1	1518.73	1.42
303.15	0.04956	0.1	1519.75	1.42
303.15	0.05943	0.1	1520.78	1.42
303.15	0	0.2	1519.28	1.42
303.15	0.00888	0.2	1520.23	1.42
303.15	0.01993	0.2	1521.39	1.42
303.15	0.02938	0.2	1522.35	1.42
303.15	0.04163	0.2	1523.59	1.42
303.15	0.04853	0.2	1524.3	1.42
303.15	0.05846	0.2	1525.27	1.42
303.15	0	0.3	1522.76	1.42
303.15	0.0099	0.3	1523.83	1.42
303.15	0.01907	0.3	1524.81	1.42
303.15	0.02932	0.3	1525.89	1.42
303.15	0.03865	0.3	1526.84	1.42
303.15	0.04616	0.3	1527.62	1.42
308.15	0	0.1	1525.09	1.42
308.15	0.00891	0.1	1526.02	1.42
308.15	0.01924	0.1	1527.09	1.42
308.15	0.02749	0.1	1527.95	1.42
308.15	0.03999	0.1	1529.18	1.42
308.15	0.04956	0.1	1530.19	1.42
308.15	0.05943	0.1	1531.18	1.42
308.15	0	0.2	1529.6	1.42
308.15	0.00888	0.2	1530.53	1.42
308.15	0.01993	0.2	1531.66	1.42
308.15	0.02938	0.2	1532.61	1.42
308.15	0.04163	0.2	1533.86	1.42
308.15	0.04853	0.2	1534.56	1.42
308.15	0.05846	0.2	1535.58	1.42
308.15	0	0.3	1532.93	1.42
308.15	0.0099	0.3	1533.97	1.42
308.15	0.01907	0.3	1534.92	1.42
308.15	0.02932	0.3	1535.94	1.42
308.15	0.03865	0.3	1536.9	1.42
308.15	0.04616	0.3	1537.65	1.42
313.15	0	0.1	1534.02	1.42
313.15	0.00891	0.1	1534.93	1.42
313.15	0.01924	0.1	1536	1.42
313.15	0.02749	0.1	1536.81	1.42
313.15	0.03999	0.1	1538.09	1.42
313.15	0.04956	0.1	1538.98	1.42
313.15	0.05943	0.1	1539.92	1.42
313.15	0	0.2	1538.42	1.42
313.15	0.00888	0.2	1539.33	1.42
313.15	0.01993	0.2	1540.44	1.42
313.15	0.02938	0.2	1541.39	1.42
313.15	0.04163	0.2	1542.64	1.42
313.15	0.04853	0.2	1543.29	1.42
313.15	0.05846	0.2	1544.22	1.42
313.15	0	0.3	1541.64	1.42
313.15	0.0099	0.3	1542.66	1.42
313.15	0.01907	0.3	1543.58	1.42
313.15	0.02932	0.3	1544.63	1.42
313.15	0.03865	0.3	1545.56	1.42
313.15	0.04616	0.3	1546.25	1.42

System: sodium chloride + water; phases: Liquid
Fixed: Pressure, kPa = 100
Property: Mass density, kg/m3 (Liquid); method: Vibrating tube method
Temperature, K	Molality, mol/kg of sodium chloride	Mass density, kg/m3	uncertainty
293.15	0.1	1002.42	0.16
293.15	0.2	1006.67	0.16
293.15	0.3	1010.64	0.16
298.15	0.1	1001.21	0.16
298.15	0.2	1005.41	0.16
298.15	0.3	1009.34	0.16
303.15	0.1	999.77	0.16
303.15	0.2	1003.93	0.16
303.15	0.3	1007.81	0.16
308.15	0.1	998.12	0.16
308.15	0.2	1002.25	0.16
308.15	0.3	1006.1	0.16
313.15	0.1	996.28	0.16
313.15	0.2	1000.38	0.16
313.15	0.3	1004.2	0.16

System: sodium chloride + water; phases: Liquid
Fixed: Pressure, kPa = 100
Fixed: Frequency, MHz = 3
Property: Speed of sound, m/s (Liquid); method: Sing-around technique in a fixed-path interferometer
Temperature, K	Molality, mol/kg of sodium chloride	Speed of sound, m/s	uncertainty
293.15	0.1	1489.33	1.41
293.15	0.2	1496.19	1.41
293.15	0.3	1502.35	1.42
298.15	0.1	1503.31	1.42
298.15	0.2	1509.89	1.42
298.15	0.3	1515.8	1.42
303.15	0.1	1515.48	1.42
303.15	0.2	1521.8	1.42
303.15	0.3	1527.55	1.42
308.15	0.1	1525.88	1.42
308.15	0.2	1532.03	1.42
308.15	0.3	1537.63	1.42
313.15	0.1	1534.76	1.42
313.15	0.2	1540.67	1.42
313.15	0.3	1546.23	1.42

System: potassium chloride + water; phases: Liquid
Fixed: Pressure, kPa = 100
Property: Mass density, kg/m3 (Liquid); method: Vibrating tube method
Temperature, K	Molality, mol/kg of potassium chloride	Mass density, kg/m3	uncertainty
293.15	0.1	1002.99	0.16
293.15	0.2	1007.72	0.16
293.15	0.3	1013.42	0.17
298.15	0.1	1001.79	0.16
298.15	0.2	1006.48	0.16
298.15	0.3	1012.13	0.17
303.15	0.1	1000.36	0.16
303.15	0.2	1005.02	0.16
303.15	0.3	1010.63	0.16
308.15	0.1	998.71	0.16
308.15	0.2	1003.35	0.16
308.15	0.3	1008.94	0.16
313.15	0.1	996.88	0.16
313.15	0.2	1001.49	0.16
313.15	0.3	1007.02	0.16

System: potassium chloride + water; phases: Liquid
Fixed: Pressure, kPa = 100
Fixed: Frequency, MHz = 3
Property: Speed of sound, m/s (Liquid); method: Sing-around technique in a fixed-path interferometer
Temperature, K	Molality, mol/kg of potassium chloride	Speed of sound, m/s	uncertainty
293.15	0.1	1488.5	1.41
293.15	0.2	1493.78	1.41
293.15	0.3	1497.6	1.41
298.15	0.1	1502.45	1.42
298.15	0.2	1507.35	1.42
298.15	0.3	1510.98	1.42
303.15	0.1	1514.56	1.42
303.15	0.2	1519.28	1.42
303.15	0.3	1522.76	1.42
308.15	0.1	1525.09	1.42
308.15	0.2	1529.6	1.42
308.15	0.3	1532.93	1.42
313.15	0.1	1534.02	1.42
313.15	0.2	1538.42	1.42
313.15	0.3	1541.64	1.42
