Measured thermophysical data. Calorimetric method for determining the thermochemical energy storage capacities of redox metal oxides
Source: Thermochim. Acta, 2019, 10.1016/j.tca.2019.01.008
Compound 1: zinc, Zn, InChI=1S/Zn
Compound 2: oxygen, O2, InChI=1S/O2/c1-2
Compound 3: iron, Fe, InChI=1S/Fe
Compound 4: manganese, Mn, InChI=1S/Mn
Compound 5: zinc(II) oxide, OZn, InChI=1S/O.Zn/q-2;+2
Compound 6: ferric oxide, Fe2O3, InChI=1S/2Fe.3O/q2*+3;3*-2
Compound 7: manganese(II) oxide, MnO, InChI=1S/Mn.O/q+2;-2
Compound 8: manganese(III) oxide, Mn2O3, InChI=1S/2Mn.3O/q2*+3;3*-2

Reaction: 1 zinc(II) oxide + -1 zinc + -.5 oxygen
Property: Molar enthalpy of reaction, kJ/mol
-340.3

Reaction: 1 ferric oxide + -2 iron + -1.5 oxygen
Property: Molar enthalpy of reaction, kJ/mol
-813.4

Reaction: 1 manganese(II) oxide + -1 manganese + -.5 oxygen
Property: Molar enthalpy of reaction, kJ/mol
-380.7

Reaction: 1 manganese(III) oxide + -2 manganese + -1.5 oxygen
Property: Molar enthalpy of reaction, kJ/mol
-957.3
