Measured thermophysical data. Thermophysical Property Measurements of Liquid and Supercooled Iridium by Containerless Methods
Source: Int. J. Thermophys., 2005, 10.1007/s10765-005-5585-3
Compound 1: iridium, Ir, InChI=1S/Ir, purity 99.9%

System: iridium; phases: Liquid, Gas
Property: Surface tension liquid-gas, N/m (Liquid); method: oscillations about equilibrium state
Temperature, K	Surface tension liquid-gas, N/m	uncertainty
2373	2.289	0.073
2423	2.28	0.073
2473	2.272	0.073
2523	2.263	0.072
2573	2.255	0.072
2623	2.246	0.072
2673	2.238	0.072
2723	2.229	0.071
2773	2.221	0.071
2833	2.211	0.071

System: iridium; phases: Liquid
Fixed: Pressure, kPa = 101.325
Property: Viscosity, Pa*s (Liquid); method: oscillations around equilibria
Temperature, K	Viscosity, Pa*s	uncertainty
2373	0.00847	0.00085
2398	0.00834	0.00083
2423	0.00821	0.00082
2448	0.00808	0.00081
2473	0.00797	0.0008
2498	0.00785	0.00079
2523	0.00774	0.00077
2548	0.00763	0.00076
2573	0.00753	0.00075
2598	0.00742	0.00074
2623	0.00733	0.00073
2648	0.00723	0.00072
2673	0.00714	0.00071
2698	0.00705	0.00071
2723	0.00697	0.0007
2748	0.00688	0.00069
2773	0.0068	0.00068

System: iridium; phases: Liquid
Fixed: Pressure, kPa = 101.325
Property: Mass density, kg/m3 (Liquid); method: UV imaging technique
Temperature, K	Mass density, kg/m3	uncertainty
2300	19856	397
2350	19814	396
2400	19771	395
2450	19729	395
2500	19686	394
2550	19644	393
2600	19601	392
2650	19559	391
2700	19516	390
2750	19474	389
2800	19431	389
2850	19389	388
2900	19346	387
2950	19304	386
3000	19261	385
