Measured thermophysical data. Densities of L-Glutamic Acid HCl Drug in Aqueous NaCl and KCl Solutions at Different Temperatures
Source: Int. J. Thermophys., 2016, 10.1007/s10765-015-2009-x
Compound 1: L-glutamic acid hydrochloride, C5H10ClNO4, InChI=1S/C5H9NO4.ClH/c6-3(5(9)10)1-2-4(7)8;/h3H,1-2,6H2,(H,7,8)(H,9,10);1H/t3-;/m0./s1, purity 99%
Compound 2: sodium chloride, ClNa, InChI=1S/ClH.Na/h1H;/q;+1/p-1, purity 99%
Compound 3: potassium chloride, ClK, InChI=1S/ClH.K/h1H;/q;+1/p-1, purity 99.5%
Compound 4: water, H2O, InChI=1S/H2O/h1H2, purity 99.9%

System: L-glutamic acid hydrochloride + sodium chloride + water; phases: Liquid
Fixed: Pressure, kPa = 101
Property: Mass density, kg/m3 (Liquid); method: Pycnometric method
Solvent: Molality, mol/kg of sodium chloride	Temperature, K	Molality, mol/kg of L-glutamic acid hydrochloride	Mass density, kg/m3	uncertainty
0	298.15	0.01009	1000	0.4
0	298.15	0.02021	1000.9	0.4
0	298.15	0.02997	1001.6	0.4
0	298.15	0.03992	1002.3	0.4
0	298.15	0.05011	1002.9	0.4
0	298.15	0.06005	1003.6	0.4
0	303.15	0.01009	998.9	0.4
0	303.15	0.02021	999.9	0.4
0	303.15	0.02997	1000.6	0.4
0	303.15	0.03992	1001.2	0.4
0	303.15	0.05011	1001.8	0.4
0	303.15	0.06005	1002.4	0.4
0	308.15	0.01009	997.6	0.4
0	308.15	0.02021	998.7	0.4
0	308.15	0.02997	999.4	0.4
0	308.15	0.03992	1000	0.4
0	308.15	0.05011	1000.6	0.4
0	308.15	0.06005	1001.1	0.4
0	313.15	0.01009	996.1	0.4
0	313.15	0.02021	997.3	0.4
0	313.15	0.02997	998	0.4
0	313.15	0.03992	998.6	0.4
0	313.15	0.05011	999.2	0.4
0	313.15	0.06005	999.8	0.4
0.5	298.15	0.00977	1019.5	0.4
0.5	298.15	0.01987	1020.3	0.4
0.5	298.15	0.02948	1020.9	0.4
0.5	298.15	0.03926	1021.6	0.4
0.5	298.15	0.0495	1022.3	0.4
0.5	298.15	0.05987	1023	0.4
0.5	303.15	0.00977	1018.2	0.4
0.5	303.15	0.01987	1018.9	0.4
0.5	303.15	0.02948	1019.6	0.4
0.5	303.15	0.03926	1020.3	0.4
0.5	303.15	0.0495	1020.9	0.4
0.5	303.15	0.05987	1021.6	0.4
0.5	308.15	0.00977	1017	0.4
0.5	308.15	0.01987	1017.6	0.4
0.5	308.15	0.02948	1018.1	0.4
0.5	308.15	0.03926	1018.8	0.4
0.5	308.15	0.0495	1019.4	0.4
0.5	308.15	0.05987	1020	0.4
0.5	313.15	0.00977	1015.1	0.4
0.5	313.15	0.01987	1015.7	0.4
0.5	313.15	0.02948	1016.4	0.4
0.5	313.15	0.03926	1017.1	0.4
0.5	313.15	0.0495	1017.7	0.4
0.5	313.15	0.05987	1018.4	0.4
1	298.15	0.00974	1038.9	0.4
1	298.15	0.01969	1039.7	0.4
1	298.15	0.02975	1040.5	0.4
1	298.15	0.03954	1041.3	0.4
1	298.15	0.0497	1042.2	0.4
1	298.15	0.05932	1043	0.4
1	303.15	0.00974	1037.5	0.4
1	303.15	0.01969	1038.2	0.4
1	303.15	0.02975	1039	0.4
1	303.15	0.03954	1039.7	0.4
1	303.15	0.0497	1040.5	0.4
1	303.15	0.05932	1041.3	0.4
1	308.15	0.00974	1035.9	0.4
1	308.15	0.01969	1036.8	0.4
1	308.15	0.02975	1037.6	0.4
1	308.15	0.03954	1038.3	0.4
1	308.15	0.0497	1039.1	0.4
1	308.15	0.05932	1040	0.4
1	313.15	0.00974	1034	0.4
1	313.15	0.01969	1034.9	0.4
1	313.15	0.02975	1035.7	0.4
1	313.15	0.03954	1036.5	0.4
1	313.15	0.0497	1037.4	0.4
1	313.15	0.05932	1038.3	0.4

System: L-glutamic acid hydrochloride + potassium chloride + water; phases: Liquid
Fixed: Pressure, kPa = 101
Property: Mass density, kg/m3 (Liquid); method: Pycnometric method
Solvent: Molality, mol/kg of potassium chloride	Temperature, K	Molality, mol/kg of L-glutamic acid hydrochloride	Mass density, kg/m3	uncertainty
0.5	298.15	0.00987	1023.4	0.4
0.5	298.15	0.02013	1024.2	0.4
0.5	298.15	0.02956	1024.9	0.4
0.5	298.15	0.03917	1025.6	0.4
0.5	298.15	0.05007	1026.5	0.4
0.5	298.15	0.05821	1027.1	0.4
0.5	303.15	0.00987	1021.7	0.4
0.5	303.15	0.02013	1022.6	0.4
0.5	303.15	0.02956	1023.3	0.4
0.5	303.15	0.03917	1024	0.4
0.5	303.15	0.05007	1024.9	0.4
0.5	303.15	0.05821	1025.6	0.4
0.5	308.15	0.00987	1020.2	0.4
0.5	308.15	0.02013	1021	0.4
0.5	308.15	0.02956	1021.8	0.4
0.5	308.15	0.03917	1022.7	0.4
0.5	308.15	0.05007	1023.7	0.4
0.5	308.15	0.05821	1024.4	0.4
0.5	313.15	0.00987	1018.9	0.4
0.5	313.15	0.02013	1019.7	0.4
0.5	313.15	0.02956	1020.4	0.4
0.5	313.15	0.03917	1021.1	0.4
0.5	313.15	0.05007	1022	0.4
0.5	313.15	0.05821	1022.6	0.4
1	298.15	0.00996	1045.7	0.4
1	298.15	0.01922	1046.5	0.4
1	298.15	0.02939	1047.4	0.4
1	298.15	0.03954	1048.3	0.4
1	298.15	0.04953	1049.3	0.4
1	298.15	0.05945	1050.3	0.4
1	303.15	0.00996	1044.4	0.4
1	303.15	0.01922	1045.1	0.4
1	303.15	0.02939	1045.9	0.4
1	303.15	0.03954	1046.8	0.4
1	303.15	0.04953	1047.7	0.4
1	303.15	0.05945	1048.7	0.4
1	308.15	0.00996	1042.7	0.5
1	308.15	0.01922	1043.4	0.5
1	308.15	0.02939	1044.2	0.6
1	308.15	0.03954	1045.2	0.6
1	308.15	0.04953	1046.1	0.6
1	308.15	0.05945	1047.2	0.6
1	313.15	0.00996	1041.2	0.4
1	313.15	0.01922	1041.9	0.4
1	313.15	0.02939	1042.7	0.4
1	313.15	0.03954	1043.5	0.4
1	313.15	0.04953	1044.4	0.4
1	313.15	0.05945	1045.3	0.4

System: L-glutamic acid hydrochloride + water; phases: Liquid
Fixed: Pressure, kPa = 101
Property: Mass density, kg/m3 (Liquid); method: Pycnometric method
Temperature, K	Molality, mol/kg of L-glutamic acid hydrochloride	Mass density, kg/m3	uncertainty
298.15	0.01009	1000	0.3
298.15	0.02021	1000.9	0.3
298.15	0.02997	1001.6	0.3
298.15	0.03992	1002.3	0.3
298.15	0.05011	1002.9	0.3
298.15	0.06005	1003.6	0.3
303.15	0.01009	998.9	0.3
303.15	0.02021	999.9	0.3
303.15	0.02997	1000.6	0.3
303.15	0.03992	1001.2	0.3
303.15	0.05011	1001.8	0.3
303.15	0.06005	1002.4	0.3
308.15	0.01009	997.6	0.3
308.15	0.02021	998.7	0.3
308.15	0.02997	999.4	0.3
308.15	0.03992	1000	0.3
308.15	0.05011	1000.6	0.3
308.15	0.06005	1001.1	0.3
313.15	0.01009	996.1	0.3
313.15	0.02021	997.3	0.3
313.15	0.02997	998	0.3
313.15	0.03992	998.6	0.3
313.15	0.05011	999.2	0.3
313.15	0.06005	999.8	0.3
