Measured thermophysical data. Thermal Conductivities of [bmim][PF6], [hmim][PF6], and [omim][PF6] from 294 to 335 K at Pressures up to 20 MPa.
Source: Int. J. Thermophys., 2007, 10.1007/s10765-007-0241-8
Compound 1: 1-butyl-3-methylimidazolium hexafluorophosphate, C8H15F6N2P, InChI=1S/C8H15N2.F6P/c1-3-4-5-10-7-6-9(2)8-10;1-7(2,3,4,5)6/h6-8H,3-5H2,1-2H3;/q+1;-1
Compound 2: 1-hexyl-3-methylimidazolium hexafluorophosphate, C10H19F6N2P, InChI=1S/C10H19N2.F6P/c1-3-4-5-6-7-12-9-8-11(2)10-12;1-7(2,3,4,5)6/h8-10H,3-7H2,1-2H3;/q+1;-1
Compound 3: 1-octyl-3-methylimidazolium hexafluorophosphate, C12H23F6N2P, InChI=1S/C12H23N2.F6P/c1-3-4-5-6-7-8-9-14-11-10-13(2)12-14;1-7(2,3,4,5)6/h10-12H,3-9H2,1-2H3;/q+1;-1
Compound 4: toluene, C7H8, InChI=1S/C7H8/c1-7-5-3-2-4-6-7/h2-6H,1H3
Compound 5: octane, C8H18, InChI=1S/C8H18/c1-3-5-7-8-6-4-2/h3-8H2,1-2H3

System: 1-butyl-3-methylimidazolium hexafluorophosphate; phases: Liquid
Property: Thermal conductivity, W/m/K (Liquid); method: Hot wire method
Temperature, K	Pressure, kPa	Thermal conductivity, W/m/K	uncertainty
294.9	0.1	0.145	0.006
294.9	10	0.146	0.006
294.9	20	0.148	0.006
315	0.1	0.145	0.006
315	10	0.146	0.006
315	20	0.147	0.006
335.1	0.1	0.144	0.006
335.1	10	0.145	0.006
335.1	20	0.147	0.006

System: 1-butyl-3-methylimidazolium hexafluorophosphate; phases: Liquid
Property: Mass density, kg/m3 (Liquid); method: Constant-volume piezometry
Temperature, K	Pressure, kPa	Mass density, kg/m3	uncertainty
294.9	100	1369	13
294.9	10000	1373	13
294.9	20000	1378	14
315	100	1352	13
315	10000	1357	13
315	20000	1362	13
335.1	100	1336	13
335.1	10000	1341	13
335.1	20000	1347	13

System: 1-hexyl-3-methylimidazolium hexafluorophosphate; phases: Liquid
Property: Thermal conductivity, W/m/K (Liquid); method: Hot wire method
Temperature, K	Pressure, kPa	Thermal conductivity, W/m/K	uncertainty
294.1	100	0.145	0.006
294.1	10000	0.147	0.006
294.1	20000	0.148	0.006
315.1	100	0.145	0.006
315.1	10000	0.146	0.006
315.1	20000	0.148	0.006
335.2	100	0.144	0.006
335.2	10000	0.146	0.006
335.2	20000	0.147	0.006

System: 1-hexyl-3-methylimidazolium hexafluorophosphate; phases: Liquid
Property: Mass density, kg/m3 (Liquid); method: Constant-volume piezometry
Temperature, K	Pressure, kPa	Mass density, kg/m3	uncertainty
294.1	100	1294	12
294.1	10000	1300	12
294.1	20000	1306	12
315.1	100	1278	11
315.1	10000	1284	12
315.1	20000	1290	12
335.2	100	1262	11
335.2	10000	1268	11
335.2	20000	1274	12

System: 1-octyl-3-methylimidazolium hexafluorophosphate; phases: Liquid
Property: Thermal conductivity, W/m/K (Liquid); method: Hot wire method
Temperature, K	Pressure, kPa	Thermal conductivity, W/m/K	uncertainty
295.1	100	0.145	0.006
295.1	10000	0.147	0.006
295.1	20000	0.147	0.006
315.1	100	0.145	0.006
315.1	10000	0.146	0.006
315.1	20000	0.147	0.006
335.2	100	0.144	0.006
335.2	10000	0.146	0.006
335.2	20000	0.147	0.006

System: 1-octyl-3-methylimidazolium hexafluorophosphate; phases: Liquid
Property: Mass density, kg/m3 (Liquid); method: Constant-volume piezometry
Temperature, K	Pressure, kPa	Mass density, kg/m3	uncertainty
295.1	100	1236	11
295.1	10000	1243	11
295.1	20000	1249	11
315.1	100	1222	10
315.1	10000	1228	11
315.1	20000	1234	11
335.2	100	1207	10
335.2	10000	1213	10
335.2	20000	1219	11

System: toluene; phases: Liquid
Property: Thermal conductivity, W/m/K (Liquid); method: Hot wire method
Temperature, K	Pressure, kPa	Thermal conductivity, W/m/K	uncertainty
294.2	100	0.132	0.006
294.2	10000	0.136	0.006
294.2	20000	0.139	0.006
314.1	100	0.127	0.005
314.1	10000	0.131	0.006
314.1	20000	0.135	0.006
334.4	100	0.122	0.005
334.4	10000	0.126	0.005
334.4	20000	0.129	0.005

System: octane; phases: Liquid
Fixed: Pressure, kPa = 100
Property: Thermal conductivity, W/m/K (Liquid); method: Hot wire method
Temperature, K	Thermal conductivity, W/m/K	uncertainty
294.5	0.126	0.005
314.7	0.121	0.005
334.8	0.115	0.005
