Measured thermophysical data. Effect of Temperature on the Liquid Liquid Equilibrium of the Ternary Aqueous System Containing N-Butylpyridinium Tetrafluoroborate and Sodium Dihydrogen Phosphate
Source: Int. J. Thermophys., 2016, 10.1007/s10765-015-2016-y
Compound 1: 1-butylpyridinium tetrafluoroborate, C9H14BF4N, InChI=1S/C9H14N.BF4/c1-2-3-7-10-8-5-4-6-9-10;2-1(3,4)5/h4-6,8-9H,2-3,7H2,1H3;/q+1;-1, purity 99%
Compound 2: water, H2O, InChI=1S/H2O/h1H2, purity 99.9%
Compound 3: sodium dihydrogen phosphate, H2NaO4P, InChI=1S/Na.H3O4P/c;1-5(2,3)4/h;(H3,1,2,3,4)/q+1;/p-1, purity 98%

System: sodium dihydrogen phosphate + water + 1-butylpyridinium tetrafluoroborate; phases: Liquid mixture 1, Liquid mixture 2
Fixed: Pressure, kPa = 760
Property: Mass fraction of 1-butylpyridinium tetrafluoroborate (Liquid mixture 1); method: UV-vis spectrophotometer
Temperature, K	Mass fraction of sodium dihydrogen phosphate	Mass fraction of 1-butylpyridinium tetrafluoroborate	uncertainty
293.15	0.0061	0.8034	0.0649
293.15	0.009	0.7099	0.0525
293.15	0.011	0.6669	0.0508
293.15	0.0124	0.6389	0.0381
293.15	0.0138	0.6133	0.0329
293.15	0.0155	0.59	0.0308
293.15	0.0172	0.5688	0.0287
293.15	0.0186	0.5487	0.0274
293.15	0.02	0.5304	0.0277
293.15	0.0214	0.5158	0.0271
293.15	0.0227	0.499	0.0264
293.15	0.0239	0.4834	0.0273
293.15	0.0249	0.4725	0.0224
293.15	0.0259	0.4622	0.0225
293.15	0.0268	0.4488	0.0213
293.15	0.0293	0.434	0.0162
293.15	0.0314	0.4198	0.0186
293.15	0.0322	0.409	0.0176
293.15	0.0341	0.3964	0.0183
293.15	0.036	0.3844	0.0163
293.15	0.0375	0.3715	0.0174
293.15	0.0392	0.3613	0.019
293.15	0.0404	0.349	0.0184
293.15	0.0422	0.3316	0.0186
293.15	0.044	0.3183	0.0188
293.15	0.0457	0.3063	0.0158
293.15	0.0464	0.2974	0.0154
293.15	0.0488	0.2854	0.0129
293.15	0.0498	0.2766	0.013
293.15	0.0516	0.2689	0.0125
293.15	0.0532	0.2592	0.0106
293.15	0.0552	0.2511	0.0106
293.15	0.0573	0.2444	0.0098
293.15	0.0583	0.2373	0.0097
293.15	0.0608	0.2293	0.0089
293.15	0.0631	0.2205	0.0087
293.15	0.0645	0.2152	0.0085
293.15	0.0662	0.2105	0.0082
293.15	0.0697	0.1992	0.0073
293.15	0.0726	0.1932	0.0065
293.15	0.0747	0.1879	0.0062
293.15	0.0792	0.1793	0.0058
293.15	0.0825	0.1732	0.0053
293.15	0.0858	0.1687	0.0054
293.15	0.0895	0.161	0.0053
293.15	0.0936	0.1549	0.0051
293.15	0.0979	0.1472	0.0049
293.15	0.1022	0.1411	0.005
293.15	0.1077	0.1305	0.005
293.15	0.1146	0.1183	0.0043
293.15	0.1206	0.1121	0.0038
298.15	0.0162	0.7414	0.059
298.15	0.0193	0.6506	0.0483
298.15	0.0201	0.6352	0.0408
298.15	0.0218	0.6095	0.0291
298.15	0.024	0.5862	0.0255
298.15	0.0261	0.5588	0.0268
298.15	0.0281	0.5394	0.0254
298.15	0.0292	0.5218	0.0247
298.15	0.0311	0.5047	0.0142
298.15	0.0325	0.4885	0.0135
298.15	0.0338	0.4754	0.0123
298.15	0.0353	0.4615	0.0119
298.15	0.0366	0.4506	0.0107
298.15	0.0388	0.4318	0.0104
298.15	0.0413	0.4163	0.01
298.15	0.0436	0.4033	0.0102
298.15	0.0462	0.3875	0.0164
298.15	0.0483	0.3689	0.0186
298.15	0.0507	0.3541	0.0191
298.15	0.0526	0.3371	0.0154
298.15	0.0551	0.3271	0.0156
298.15	0.0571	0.3155	0.011
298.15	0.0593	0.299	0.0145
298.15	0.0633	0.2837	0.0095
298.15	0.0656	0.2736	0.0111
298.15	0.0683	0.2574	0.0096
298.15	0.0723	0.2444	0.0069
298.15	0.0744	0.2362	0.009
298.15	0.0768	0.2298	0.0127
298.15	0.0814	0.2146	0.0062
298.15	0.0847	0.2037	0.0059
298.15	0.0874	0.1979	0.01
298.15	0.0921	0.1885	0.0047
298.15	0.0944	0.1833	0.01
298.15	0.0974	0.1754	0.0067
298.15	0.1032	0.1674	0.0045
298.15	0.107	0.1617	0.0053
298.15	0.1124	0.1535	0.0043
298.15	0.1162	0.146	0.0051
298.15	0.1197	0.1419	0.0041
298.15	0.1228	0.138	0.0063
298.15	0.1271	0.133	0.0057
298.15	0.1326	0.1266	0.0047
298.15	0.1404	0.1224	0.0042
298.15	0.1472	0.1185	0.0036
298.15	0.1505	0.1152	0.0036
298.15	0.157	0.1112	0.0036
298.15	0.1622	0.1051	0.0036
298.15	0.1682	0.1011	0.0033
298.15	0.1735	0.098	0.0031
298.15	0.1795	0.0964	0.0031
298.15	0.1872	0.0915	0.0031
298.15	0.1995	0.0875	0.0028
298.15	0.2226	0.0805	0.0027
298.15	0.2465	0.0704	0.0026
308.15	0.0471	0.668	0.0511
308.15	0.0497	0.6313	0.0419
308.15	0.0523	0.6002	0.0417
308.15	0.0551	0.5811	0.029
308.15	0.0571	0.5618	0.0294
308.15	0.0607	0.5251	0.0217
308.15	0.0633	0.5039	0.0282
308.15	0.0657	0.4852	0.0149
308.15	0.068	0.4709	0.015
308.15	0.0705	0.4559	0.0224
308.15	0.0724	0.4444	0.0157
308.15	0.0739	0.4287	0.0164
308.15	0.0757	0.417	0.021
308.15	0.0787	0.4022	0.0094
308.15	0.0823	0.3892	0.0104
308.15	0.0836	0.3804	0.0166
308.15	0.0869	0.3679	0.0122
308.15	0.0881	0.3599	0.0109
308.15	0.0911	0.3489	0.0104
308.15	0.0922	0.342	0.0133
308.15	0.0941	0.3339	0.0102
308.15	0.0961	0.3224	0.0157
308.15	0.0988	0.3104	0.0076
308.15	0.1065	0.2892	0.0097
308.15	0.1099	0.2796	0.0125
308.15	0.1125	0.2694	0.0065
308.15	0.1186	0.2578	0.007
308.15	0.1213	0.25	0.0107
308.15	0.1259	0.2393	0.007
308.15	0.1278	0.2335	0.0065
308.15	0.1337	0.2216	0.007
308.15	0.1394	0.2098	0.0078
308.15	0.144	0.2005	0.0143
318.15	0.0614	0.6257	0.0206
318.15	0.065	0.5922	0.0204
318.15	0.0675	0.5708	0.0203
318.15	0.0708	0.5412	0.0187
318.15	0.0743	0.5184	0.0192
318.15	0.0762	0.5025	0.0185
318.15	0.0778	0.4868	0.0191
318.15	0.0806	0.4704	0.0168
318.15	0.082	0.4583	0.0166
318.15	0.0847	0.4432	0.0158
318.15	0.0871	0.4279	0.0161
318.15	0.0894	0.4135	0.014
318.15	0.0929	0.3981	0.013
318.15	0.096	0.3835	0.0133
318.15	0.0979	0.3727	0.0131
318.15	0.1007	0.36	0.0117
318.15	0.103	0.3518	0.0117
318.15	0.1052	0.3411	0.0114
318.15	0.1087	0.3284	0.0105
318.15	0.1119	0.3168	0.0105
318.15	0.1145	0.3068	0.0098
318.15	0.1236	0.2772	0.0094
318.15	0.1261	0.2665	0.0093
318.15	0.1304	0.2531	0.0081
318.15	0.1356	0.2399	0.0079
318.15	0.1404	0.2251	0.0082
318.15	0.1431	0.216	0.0074
318.15	0.1471	0.2067	0.0061
318.15	0.1504	0.2022	0.0056
318.15	0.1546	0.1952	0.0057
318.15	0.159	0.1877	0.0055
318.15	0.1628	0.1821	0.0052
318.15	0.1668	0.1763	0.0049
318.15	0.1703	0.1728	0.0047
318.15	0.1752	0.1669	0.0047
318.15	0.182	0.1593	0.0047
318.15	0.187	0.152	0.0045
318.15	0.1914	0.148	0.0041
318.15	0.1962	0.1441	0.0042
318.15	0.2028	0.1362	0.004
318.15	0.2092	0.1324	0.0039
318.15	0.2167	0.124	0.0037
318.15	0.2251	0.12	0.0035
318.15	0.2329	0.1138	0.0035

System: sodium dihydrogen phosphate + water + 1-butylpyridinium tetrafluoroborate; phases: Liquid mixture 2, Liquid mixture 1
Fixed: Pressure, kPa = 760
Property: Mass fraction of sodium dihydrogen phosphate (Liquid mixture 2); method: OTHER
Property: Mass fraction of sodium dihydrogen phosphate (Liquid mixture 1); method: OTHER
Property: Mass fraction of 1-butylpyridinium tetrafluoroborate (Liquid mixture 1); method: OTHER
Temperature, K	Mass fraction of 1-butylpyridinium tetrafluoroborate	Mass fraction of sodium dihydrogen phosphate	uncertainty	Mass fraction of sodium dihydrogen phosphate	uncertainty	Mass fraction of 1-butylpyridinium tetrafluoroborate	uncertainty
293.15	0.1925	0.08	0.0028	0.0119	0.002	0.6514	
318.15	0.1448	0.1933	0.005	0.0615	0.0024	0.6297	
318.15	0.1297	0.2089	0.0053	0.0553	0.0023	0.6999	
318.15	0.1416	0.1964	0.0051	0.0593	0.0024	0.6532	
293.15	0.1605	0.097	0.0033	0.0081	0.002	0.7466	
293.15	0.1166	0.1365	0.004	0.006	0.002	0.8164	
298.15	0.2047	0.0883	0.003	0.0225	0.0021	0.6059	
298.15	0.2289	0.0793	0.0028	0.024	0.0021	0.5848	
298.15	0.139	0.1254	0.0036	0.0163	0.002	0.7168	
308.15	0.1718	0.1646	0.0044	0.0532	0.0023	0.5963	
308.15	0.1418	0.1946	0.0046	0.0519	0.0023	0.6094	
308.15	0.1888	0.1523	0.0041	0.0537	0.0023	0.5916	
