Measured thermophysical data. Viscosity of Imidazolium-Based Ionic Liquids at Elevated Pressures: Cation and Anion Effects
Source: Int. J. Thermophys., 2008, 10.1007/s10765-008-0497-7
Compound 1: 1-ethyl-3-methylimidazolium bis((trifluoromethyl)sulfonyl)imide, C8H11F6N3O4S2, InChI=1S/C6H11N2.C2F6NO4S2/c1-3-8-5-4-7(2)6-8;3-1(4,5)14(10,11)9-15(12,13)2(6,7)8/h4-6H,3H2,1-2H3;/q+1;-1
Compound 2: 1-hexyl-3-methylimidazolium bis[(trifluoromethyl)sulfonyl]imide, C12H19F6N3O4S2, InChI=1S/C10H19N2.C2F6NO4S2/c1-3-4-5-6-7-12-9-8-11(2)10-12;3-1(4,5)14(10,11)9-15(12,13)2(6,7)8/h8-10H,3-7H2,1-2H3;/q+1;-1
Compound 3: 1-decyl-3-methylimidazolium bis(trifluoromethylsulfonyl)amide, C16H27F6N3O4S2, InChI=1S/C14H27N2.C2F6NO4S2/c1-3-4-5-6-7-8-9-10-11-16-13-12-15(2)14-16;3-1(4,5)14(10,11)9-15(12,13)2(6,7)8/h12-14H,3-11H2,1-2H3;/q+1;-1
Compound 4: 1-hexyl-3-methylimidazolium tetrafluoroborate, C10H19BF4N2, InChI=1S/C10H19N2.BF4/c1-3-4-5-6-7-12-9-8-11(2)10-12;2-1(3,4)5/h8-10H,3-7H2,1-2H3;/q+1;-1
Compound 5: 1-hexyl-3-methylimidazolium hexafluorophosphate, C10H19F6N2P, InChI=1S/C10H19N2.F6P/c1-3-4-5-6-7-12-9-8-11(2)10-12;1-7(2,3,4,5)6/h8-10H,3-7H2,1-2H3;/q+1;-1
Compound 6: 1-butyl-3-methylimidazolium hexafluorophosphate, C8H15F6N2P, InChI=1S/C8H15N2.F6P/c1-3-4-5-10-7-6-9(2)8-10;1-7(2,3,4,5)6/h6-8H,3-5H2,1-2H3;/q+1;-1

System: 1-ethyl-3-methylimidazolium bis((trifluoromethyl)sulfonyl)imide; phases: Liquid
Property: Viscosity, Pa*s (Liquid); method: Cone and plate viscometry
Temperature, K	Pressure, kPa	Viscosity, Pa*s	uncertainty
298.15	101.325	0.0341	0.001

System: 1-ethyl-3-methylimidazolium bis((trifluoromethyl)sulfonyl)imide; phases: Liquid
Fixed: Pressure, kPa = 101.325
Property: Viscosity, Pa*s (Liquid); method: Moving piston method
Temperature, K	Viscosity, Pa*s	uncertainty
298.15	0.03429	0.00026
323.15	0.0156	0.0002
343.15	0.00955	9e-05

System: 1-ethyl-3-methylimidazolium bis((trifluoromethyl)sulfonyl)imide; phases: Liquid
Property: Viscosity, Pa*s (Liquid); method: Moving piston method
Temperature, K	Pressure, kPa	Viscosity, Pa*s	uncertainty
298.15	100	0.0344	0.0021
298.15	2820	0.035	0.0021
298.15	4190	0.0353	0.0021
298.15	7360	0.0362	0.0022
298.15	35560	0.0468	0.0028
298.15	48760	0.0533	0.0032
298.15	69300	0.065	0.0039
298.15	85200	0.0794	0.0048
298.15	96500	0.09	0.0054
298.15	110550	0.1086	0.0065
298.15	122430	0.1315	0.0079
323.15	100	0.0156	0.0009
323.15	2820	0.0161	0.001
323.15	4190	0.0164	0.001
323.15	7360	0.0169	0.001
323.15	35560	0.022	0.0013
323.15	48760	0.0249	0.0015
323.15	69300	0.0308	0.0019
323.15	85200	0.0367	0.0022
323.15	96500	0.0401	0.0024
323.15	110550	0.0448	0.0027
323.15	121530	0.0495	0.003
343.15	100	0.0096	0.0006
343.15	2820	0.0098	0.0006
343.15	4190	0.0099	0.0006
343.15	7360	0.0102	0.0006
343.15	35560	0.0126	0.0008
343.15	48760	0.0138	0.0008
343.15	69300	0.016	0.001
343.15	85200	0.0177	0.0011
343.15	96500	0.0192	0.0012
343.15	110550	0.0212	0.0013
343.15	125530	0.0234	0.0014

System: 1-hexyl-3-methylimidazolium bis[(trifluoromethyl)sulfonyl]imide; phases: Liquid
Property: Viscosity, Pa*s (Liquid); method: Cone and plate viscometry
Temperature, K	Pressure, kPa	Viscosity, Pa*s	uncertainty
298.15	101.325	0.0715	0.0024

System: 1-hexyl-3-methylimidazolium bis[(trifluoromethyl)sulfonyl]imide; phases: Liquid
Fixed: Pressure, kPa = 101.325
Property: Viscosity, Pa*s (Liquid); method: Moving piston method
Temperature, K	Viscosity, Pa*s	uncertainty
298.15	0.071	0.0007
323.15	0.0249	0.0003
343.15	0.0141	0.0004

System: 1-hexyl-3-methylimidazolium bis[(trifluoromethyl)sulfonyl]imide; phases: Liquid
Property: Viscosity, Pa*s (Liquid); method: Moving piston method
Temperature, K	Pressure, kPa	Viscosity, Pa*s	uncertainty
298.15	100	0.07096	0.00427
298.15	2990	0.07104	0.00428
298.15	4000	0.07138	0.0043
298.15	7000	0.07371	0.00444
298.15	35000	0.1034	0.0062
298.15	50000	0.1222	0.0074
298.15	70000	0.1522	0.0092
298.15	83000	0.1732	0.0104
298.15	93000	0.1963	0.0118
298.15	110000	0.2376	0.0143
298.15	124000	0.2757	0.0166
323.15	100	0.0249	0.0015
323.15	2990	0.02581	0.00157
323.15	4000	0.02598	0.00158
323.15	7000	0.02687	0.00163
323.15	35000	0.03596	0.00219
323.15	50000	0.04157	0.00254
323.15	70000	0.05043	0.00308
323.15	83000	0.05696	0.00348
323.15	93000	0.06211	0.0038
323.15	110000	0.0716	0.0044
323.15	124000	0.08046	0.00499
343.15	100	0.01407	0.00085
343.15	2990	0.01412	0.00086
343.15	4000	0.01422	0.00086
343.15	7000	0.0146	0.0009
343.15	35000	0.01862	0.00113
343.15	50000	0.0211	0.0013
343.15	70000	0.02517	0.00153
343.15	83000	0.02812	0.00171
343.15	93000	0.03042	0.00185
343.15	110000	0.03465	0.00211
343.15	124000	0.03834	0.00234

System: 1-decyl-3-methylimidazolium bis(trifluoromethylsulfonyl)amide; phases: Liquid
Property: Viscosity, Pa*s (Liquid); method: Cone and plate viscometry
Temperature, K	Pressure, kPa	Viscosity, Pa*s	uncertainty
298.15	101.325	0.1112	0.0045

System: 1-decyl-3-methylimidazolium bis(trifluoromethylsulfonyl)amide; phases: Liquid
Fixed: Pressure, kPa = 101.325
Property: Viscosity, Pa*s (Liquid); method: Moving piston method
Temperature, K	Viscosity, Pa*s	uncertainty
298.15	0.1082	0.0011
323.15	0.0363	0.0005
343.15	0.0182	0.00023

System: 1-decyl-3-methylimidazolium bis(trifluoromethylsulfonyl)amide; phases: Liquid
Property: Viscosity, Pa*s (Liquid); method: Moving piston method
Temperature, K	Pressure, kPa	Viscosity, Pa*s	uncertainty
298.15	100	0.1082	0.0065
298.15	2950	0.1115	0.0067
298.15	4270	0.1128	0.0068
298.15	6900	0.1176	0.0071
298.15	34600	0.1675	0.0101
298.15	47960	0.199	0.012
298.15	68870	0.257	0.0155
298.15	83290	0.3011	0.0182
298.15	93030	0.3367	0.0204
298.15	109800	0.4027	0.0244
298.15	122570	0.4598	0.0278
323.15	100	0.0362	0.0022
323.15	2950	0.0375	0.0023
323.15	4270	0.0382	0.0023
323.15	6900	0.0392	0.0024
323.15	34600	0.0536	0.0033
323.15	47960	0.0618	0.0038
323.15	68870	0.076	0.0047
323.15	83290	0.0859	0.0053
323.15	93030	0.0943	0.0058
323.15	109800	0.1108	0.0069
323.15	122570	0.1226	0.0077
343.15	100	0.01815	0.00111
343.15	2950	0.01855	0.00113
343.15	4270	0.01875	0.00115
343.15	6900	0.0193	0.00118
343.15	34600	0.02576	0.00158
343.15	47960	0.02915	0.00178
343.15	68870	0.03572	0.00219
343.15	83290	0.04047	0.00248
343.15	93030	0.04456	0.00273
343.15	109800	0.05126	0.00314
343.15	122570	0.05674	0.00348

System: 1-hexyl-3-methylimidazolium tetrafluoroborate; phases: Liquid
Property: Viscosity, Pa*s (Liquid); method: Cone and plate viscometry
Temperature, K	Pressure, kPa	Viscosity, Pa*s	uncertainty
298.15	101.325	0.2104	0.0116

System: 1-hexyl-3-methylimidazolium tetrafluoroborate; phases: Liquid
Fixed: Pressure, kPa = 101.325
Property: Viscosity, Pa*s (Liquid); method: Moving piston method
Temperature, K	Viscosity, Pa*s	uncertainty
298.15	0.2024	0.0021
323.15	0.0585	0.001
343.15	0.027	0.0004

System: 1-hexyl-3-methylimidazolium tetrafluoroborate; phases: Liquid
Property: Viscosity, Pa*s (Liquid); method: Moving piston method
Temperature, K	Pressure, kPa	Viscosity, Pa*s	uncertainty
298.15	100	0.202	0.012
298.15	2640	0.209	0.013
298.15	4290	0.213	0.013
298.15	6950	0.215	0.013
298.15	34590	0.299	0.018
298.15	48400	0.387	0.023
298.15	68140	0.478	0.029
298.15	82970	0.532	0.032
298.15	96820	0.621	0.038
298.15	108550	0.743	0.045
298.15	117850	0.819	0.05
323.15	100	0.0585	0.0036
323.15	2600	0.0597	0.0037
323.15	4130	0.061	0.0038
323.15	6850	0.062	0.0038
323.15	34520	0.0799	0.005
323.15	48180	0.0911	0.0057
323.15	68990	0.1082	0.0068
323.15	82710	0.1218	0.0076
323.15	96550	0.136	0.0086
323.15	110120	0.1524	0.0097
323.15	121810	0.165	0.0108
343.15	100	0.027	0.0017
343.15	3100	0.0276	0.0017
343.15	4100	0.0275	0.0017
343.15	7100	0.028	0.0017
343.15	35100	0.0352	0.0022
343.15	48340	0.0392	0.0024
343.15	68140	0.045	0.0028
343.15	83080	0.0499	0.0031
343.15	96550	0.0551	0.0034
343.15	110120	0.0608	0.0038
343.15	121810	0.065	0.004

System: 1-hexyl-3-methylimidazolium hexafluorophosphate; phases: Liquid
Property: Viscosity, Pa*s (Liquid); method: Cone and plate viscometry
Temperature, K	Pressure, kPa	Viscosity, Pa*s	uncertainty
298.15	101.325	0.4895	0.0396

System: 1-hexyl-3-methylimidazolium hexafluorophosphate; phases: Liquid
Fixed: Pressure, kPa = 101.325
Property: Viscosity, Pa*s (Liquid); method: Moving piston method
Temperature, K	Viscosity, Pa*s	uncertainty
298.15	0.4814	0.0057
323.15	0.1214	0.0021
343.15	0.0481	0.001

System: 1-hexyl-3-methylimidazolium hexafluorophosphate; phases: Liquid
Property: Viscosity, Pa*s (Liquid); method: Moving piston method
Temperature, K	Pressure, kPa	Viscosity, Pa*s	uncertainty
298.15	100	0.481	0.029
298.15	2990	0.523	0.032
298.15	4000	0.53	0.032
298.15	7000	0.556	0.034
298.15	22000	0.701	0.042
298.15	35000	0.833	0.05
298.15	42100	0.92	0.055
298.15	50000	1.023	0.062
298.15	60300	1.176	0.071
323.15	100	0.1214	0.0075
323.15	4000	0.1271	0.0079
323.15	7600	0.1324	0.0083
323.15	25800	0.164	0.0103
323.15	35000	0.1826	0.0115
323.15	50600	0.2189	0.0139
323.15	60300	0.2417	0.0154
323.15	76000	0.2808	0.017
323.15	93000	0.3342	0.0202
323.15	101000	0.3642	0.022
323.15	126000	0.4831	0.0292
343.15	100	0.0481	0.003
343.15	4000	0.0503	0.0031
343.15	7600	0.052	0.0032
343.15	25800	0.0626	0.0039
343.15	35000	0.0686	0.0043
343.15	50600	0.0805	0.005
343.15	60300	0.0881	0.0055
343.15	76000	0.1025	0.0064
343.15	93000	0.1187	0.0074
343.15	101000	0.1271	0.008
343.15	126000	0.1578	0.01

System: 1-butyl-3-methylimidazolium hexafluorophosphate; phases: Liquid
Fixed: Temperature, K = 298.15
Property: Viscosity, Pa*s (Liquid); method: Moving piston method
Pressure, kPa	Viscosity, Pa*s	uncertainty
100	0.2709	0.0208
3400	0.2897	0.0226
6900	0.3057	0.0241
12100	0.3292	0.0263
17200	0.3537	0.0288
24700	0.3963	0.0331
25700	0.3982	0.0333
41400	0.4738	0.0414
50600	0.5434	0.0493
