Measured thermophysical data. Ambient Volatility of DMMP
Source: Int. J. Thermophys., 2006, 10.1007/s10765-006-0044-3
Compound 1: dimethyl methanephosphonate, C3H9O3P, InChI=1S/C3H9O3P/c1-5-7(3,4)6-2/h1-3H3, purity 99%
Compound 2: water, H2O, InChI=1S/H2O/h1H2, purity 99%

System: dimethyl methanephosphonate + water; phases: Gas, Liquid
Property: Boiling temperature at pressure P, K (Gas); method: Model 911 Dew-All Digital Humidity Analyzer with two vapor saturators in parallel
Pressure, kPa of dimethyl methanephosphonate	Pressure, kPa of water	Boiling temperature at pressure P, K	uncertainty
0.0026	0.52	277.15	0.4
0.0026	0.742	280.7	0.4
0.0026	1.04	284.35	0.4
0.0026	1.44	288.2	0.4
0.0026	1.97	292.35	0.4
0.0026	2.67	296.65	0.4
0.0026	3.58	301.1	0.4
0.0026	4.74	305.7	0.4
0.0039	0.52	278.75	0.4
0.0039	0.742	282.05	0.4
0.0039	1.04	285.55	0.4
0.0039	1.44	289.2	0.4
0.0039	1.97	293.45	0.4
0.0039	2.67	297.2	0.4
0.0039	3.58	301.55	0.4
0.0039	4.74	306.05	0.4
0.0059	0.52	280.55	0.4
0.0059	0.742	283.65	0.4
0.0059	1.04	286.95	0.4
0.0059	1.44	290.35	0.4
0.0059	1.97	294.25	0.4
0.0059	2.67	297.95	0.4
0.0059	3.58	302.1	0.4
0.0059	4.74	306.45	0.4
0.0087	0.52	282.55	0.4
0.0087	0.742	285.4	0.4
0.0087	1.04	288.55	0.4
0.0087	1.44	291.75	0.4
0.0087	1.97	295.45	0.4
0.0087	2.67	298.95	0.4
0.0087	3.58	302.85	0.4
0.0087	4.74	307.05	0.4
0.0127	0.52	284.65	0.4
0.0127	0.742	287.35	0.4
0.0127	1.04	290.25	0.4
0.0127	1.44	293.25	0.4
0.0127	1.97	296.75	0.4
0.0127	2.67	300.25	0.4
0.0127	3.58	303.95	0.4
0.0127	4.74	307.75	0.4
0.0183	0.52	287.05	0.4
0.0183	0.742	289.45	0.4
0.0183	1.04	292.15	0.4
0.0183	1.44	295.05	0.4
0.0183	1.97	298.25	0.4
0.0183	2.67	301.6	0.4
0.0183	3.58	305.1	0.4
0.0183	4.74	308.65	0.4
0.0258	0.52	289.55	0.4
0.0258	0.742	291.75	0.4
0.0258	1.04	294.25	0.4
0.0258	1.44	296.95	0.4
0.0258	1.97	300	0.4
0.0258	2.67	303.15	0.4
0.0258	3.58	306.4	0.4
0.0258	4.74	309.75	0.4
0.036	0.52	292.15	0.4
0.036	0.742	294.25	0.4
0.036	1.04	296.55	0.4
0.036	1.44	298.95	0.4
0.036	1.97	301.85	0.4
0.036	2.67	304.85	0.4
0.036	3.58	307.85	0.4
0.036	4.74	310.95	0.4
0.0496	0.52	294.55	0.4
0.0496	0.742	296.75	0.4
0.0496	1.04	298.85	0.4
0.0496	1.44	300.95	0.4
0.0496	1.97	303.9	0.4
0.0496	2.67	306.65	0.4
0.0496	3.58	309.85	0.4
