Measured thermophysical data. Thermodynamic Properties of Methanol in the Critical and Supercritical Regions
Source: Int. J. Thermophys., 2005, 10.1007/s10765-005-8091-8
Compound 1: methanol, CH4O, InChI=1S/CH4O/c1-2/h2H,1H3, purity 99.93%

System: methanol; phases: Liquid, Gas
Property: Molar heat capacity at constant volume, J/K/mol (Liquid); method: Small (less than 1 g) adiabatic calorimetry
Temperature, K	Molar heat capacity at constant volume, J/K/mol	uncertainty
512.346	166.9380906	6.85695804
512.727	184.240695	10.06114404
512.772	194.4940902	10.38156264
512.78	202.1841366	13.00899516
512.785	206.3495784	14.13046026

System: methanol; phases: Gas, Liquid
Property: Molar heat capacity at constant volume, J/K/mol (Gas); method: Small (less than 1 g) adiabatic calorimetry
Temperature, K	Molar heat capacity at constant volume, J/K/mol	uncertainty
512.779	206.41366212	8.29884174

System: methanol; phases: Liquid, Gas
Property: Mass density, kg/m3 (Liquid); method: Quasistatic thermogram
Temperature, K	Mass density, kg/m3	uncertainty
512.346	331.59	10
512.727	306.93	10
512.772	294.83	10
512.78	282.43	10
512.785	277.49	10

System: methanol; phases: Gas, Liquid
Property: Mass density, kg/m3 (Gas); method: Quasistatit thermograms
Temperature, K	Mass density, kg/m3	uncertainty
512.779	274.87	0.33

System: methanol; phases: Fluid (supercritical or subcritical phases)
Property: Molar heat capacity at constant volume, J/K/mol (Fluid (supercritical or subcritical phases)); method: Small (less than 1 g) adiabatic calorimetry
Temperature, K	Mass density, kg/m3	Molar heat capacity at constant volume, J/K/mol	uncertainty
512.346	331.59	166.9380906	6.79287432
512.361	331.59	167.03421618	6.82491618
512.455	331.59	163.7339046	6.63266502
512.643	331.59	159.37621164	6.44041386
512.727	306.93	184.240695	7.65800454
512.768	331.59	156.3642768	6.31224642
512.772	294.83	194.4940902	7.88229756
512.779	274.87	206.41366212	8.36292546
512.78	282.43	202.1841366	8.74742778
512.785	277.49	206.3495784	8.3308836
512.808	306.93	179.08195554	7.33758594
512.809	282.43	198.85178316	8.71538592
512.81	274.87	205.3883226	8.29884174
512.836	294.83	191.70644838	7.81821384
512.862	277.49	202.76089008	8.39496732
512.902	306.93	175.7496021	7.11329292
512.903	282.43	189.3673926	8.3308836
512.929	294.83	185.71462056	7.59392082
512.995	306.93	173.28237888	7.01716734
512.996	282.43	179.30624856	7.43371152
512.998	274.87	196.06414134	8.010465
513.023	294.83	180.84425784	7.27350222
513.049	331.59	152.45516988	6.15203712
513.089	306.93	170.4626952	6.8889999
513.142	331.59	151.20553734	6.0879534
513.164	274.87	187.25262984	7.62596268
513.183	306.93	168.47609988	6.79287432
513.184	282.43	177.1914858	7.11329292
513.236	277.49	182.70268572	7.49779524
513.33	294.83	175.17284862	7.0492092
513.33	331.59	149.37915132	6.02386968
513.352	274.87	181.9977648	7.3696278
513.37	306.93	165.04762086	6.63266502
513.423	277.49	177.47986254	7.14533478
513.464	306.93	165.4962069	6.66470688
513.517	274.87	179.37033228	7.24146036
513.517	294.83	170.52677892	6.8889999
513.518	331.59	148.3538118	5.95978596
513.562	282.43	173.85913236	6.98512548
513.652	306.93	161.07443022	6.50449758
513.704	274.87	173.026044	6.98512548
513.704	277.49	172.83379284	6.95308362
513.704	294.83	166.9380906	6.7287906
513.748	282.43	170.59086264	6.85695804
513.841	306.93	158.2867884	6.37633014
513.891	274.87	170.36656962	6.85695804
513.892	294.83	164.27861622	6.60062316
514.03	282.43	167.19442548	6.7287906
514.068	306.93	156.3642768	6.28020456
514.08	294.83	161.811393	6.50449758
514.082	331.59	145.53412812	5.86366038
514.172	274.87	167.2585092	6.76083246
514.173	277.49	166.9380906	6.7287906
514.216	282.43	164.8553697	6.63266502
514.256	306.93	154.1213466	6.21612084
514.36	274.87	159.5684628	6.47245572
514.361	277.49	164.91945342	6.66470688
514.364	331.59	145.4700444	5.83161852
514.406	282.43	163.02898368	6.53653944
514.458	331.59	147.00805368	5.9277441
514.547	274.87	157.005114	6.34428828
514.827	282.43	162.4522302	6.53653944
516.322	277.49	154.7621838	6.21612084
516.322	331.59	139.5423003	5.6073255
516.613	331.59	138.7412538	5.57528364
516.895	331.59	138.35675148	5.57528364
516.939	277.49	152.8396722	6.15203712
518.747	306.93	139.47821658	5.6073255
518.84	274.87	143.8679514	5.79957666
518.84	294.83	140.63172354	5.63936736
519.026	274.87	144.95737464	5.83161852
519.026	294.83	140.3433468	5.63936736
519.026	306.93	139.0616724	5.57528364
519.306	282.43	145.56616998	5.86366038
519.306	306.93	138.54900264	5.57528364
519.399	274.87	145.24575138	5.86366038
519.399	294.83	140.88805842	5.67140922
519.492	274.87	143.29119792	5.79957666
519.492	306.93	138.83737938	5.57528364
519.585	282.43	144.8292072	5.83161852
519.585	294.83	140.3433468	5.63936736
519.771	282.43	144.41266302	5.79957666
519.864	282.43	144.15632814	5.79957666
520.051	277.49	144.12428628	5.79957666
520.64	277.49	143.00282118	5.73549294
520.837	277.49	143.3873235	5.7675348
520.947	331.59	131.43570972	5.2869069
521.259	331.59	130.92303996	5.25486504
521.538	331.59	130.50649578	5.25486504
521.724	331.59	130.31424462	5.22282318
523.766	277.49	134.83214688	5.41507434
524.321	277.49	134.19130968	5.38303248
525.342	306.93	130.98712368	5.25486504
525.527	306.93	130.92303996	5.25486504
525.712	306.93	131.30754228	5.2869069
525.712	331.59	123.0407424	4.93444644
525.897	331.59	123.13686798	4.9664883
525.989	306.93	130.0899516	5.22282318
526.082	331.59	122.7203238	4.93444644
526.267	331.59	122.84849124	4.93444644
526.914	282.43	131.14733298	5.2869069
526.914	294.83	132.07654692	5.31894876
527.077	294.83	131.91633762	5.2869069
527.099	282.43	131.0512074	5.25486504
527.284	282.43	131.17937484	5.2869069
527.284	294.83	132.14063064	5.31894876
527.377	274.87	131.98042134	5.31894876
527.469	282.43	131.30754228	5.2869069
527.562	294.83	131.5318353	5.2869069
527.654	274.87	133.58251434	5.38303248
527.746	274.87	131.0512074	5.25486504
528.029	274.87	131.78817018	5.2869069
528.075	277.49	131.30754228	5.2869069
528.94	277.49	131.0512074	5.25486504
531.16	282.43	129.22482138	5.19078132
531.16	331.59	122.0794866	4.90240458
531.248	331.59	122.30377962	4.93444644
531.614	331.59	122.46398892	4.93444644
531.63	282.43	129.67340742	5.22282318
532.172	277.49	130.21811904	5.22282318
532.617	277.49	130.82691438	5.25486504
532.843	277.49	129.41707254	5.22282318
532.984	277.49	129.1286958	5.19078132
