Measured thermophysical data. Densities, Excess Molar Volumes, Viscosities, and Refractive Indices of Binary Mixtures of n-Butyl Acetate with 1-Chloroalkanes (C4 C8) at 298.15 K
Source: Int. J. Thermophys., 2011, 10.1007/s10765-010-0902-x
Compound 1: butyl ethanoate, C6H12O2, InChI=1S/C6H12O2/c1-3-4-5-8-6(2)7/h3-5H2,1-2H3
Compound 2: 1-chlorobutane, C4H9Cl, InChI=1S/C4H9Cl/c1-2-3-4-5/h2-4H2,1H3
Compound 3: 1-chloropentane, C5H11Cl, InChI=1S/C5H11Cl/c1-2-3-4-5-6/h2-5H2,1H3
Compound 4: 1-chlorohexane, C6H13Cl, InChI=1S/C6H13Cl/c1-2-3-4-5-6-7/h2-6H2,1H3
Compound 5: 1-chloroheptane, C7H15Cl, InChI=1S/C7H15Cl/c1-2-3-4-5-6-7-8/h2-7H2,1H3
Compound 6: 1-chlorooctane, C8H17Cl, InChI=1S/C8H17Cl/c1-2-3-4-5-6-7-8-9/h2-8H2,1H3

System: butyl ethanoate; phases: Liquid
Property: Refractive index (Na D-line) (Liquid); method: Standard Abbe refractometry
Temperature, K	Pressure, kPa	Refractive index (Na D-line)	uncertainty
298.15	101.325	1.3918	0.0004

System: butyl ethanoate; phases: Liquid
Property: Mass density, kg/m3 (Liquid); method: VIBTUB::UFactor:4
Temperature, K	Pressure, kPa	Mass density, kg/m3	uncertainty
298.15	101	876.28	0.36

System: 1-chlorobutane; phases: Liquid
Property: Refractive index (Na D-line) (Liquid); method: Standard Abbe refractometry
Temperature, K	Pressure, kPa	Refractive index (Na D-line)	uncertainty
298.15	101.325	1.3996	0.0004

System: 1-chlorobutane; phases: Liquid
Property: Mass density, kg/m3 (Liquid); method: VIBTUB::UFactor:4
Temperature, K	Pressure, kPa	Mass density, kg/m3	uncertainty
298.15	101	880.87	0.35

System: 1-chloropentane; phases: Liquid
Property: Refractive index (Na D-line) (Liquid); method: Standard Abbe refractometry
Temperature, K	Pressure, kPa	Refractive index (Na D-line)	uncertainty
298.15	101.325	1.4097	0.0004

System: 1-chloropentane; phases: Liquid
Property: Mass density, kg/m3 (Liquid); method: VIBTUB::UFactor:4
Temperature, K	Pressure, kPa	Mass density, kg/m3	uncertainty
298.15	101	876.93	0.47

System: 1-chlorohexane; phases: Liquid
Property: Refractive index (Na D-line) (Liquid); method: Standard Abbe refractometry
Temperature, K	Pressure, kPa	Refractive index (Na D-line)	uncertainty
298.15	101.325	1.4171	0.0004

System: 1-chlorohexane; phases: Liquid
Property: Mass density, kg/m3 (Liquid); method: VIBTUB::UFactor:4
Temperature, K	Pressure, kPa	Mass density, kg/m3	uncertainty
298.15	101	873.39	0.47

System: 1-chloroheptane; phases: Liquid
Property: Refractive index (Na D-line) (Liquid); method: Standard Abbe refractometry
Temperature, K	Pressure, kPa	Refractive index (Na D-line)	uncertainty
298.15	101.325	1.4236	0.0004

System: 1-chloroheptane; phases: Liquid
Property: Mass density, kg/m3 (Liquid); method: VIBTUB::UFactor:4
Temperature, K	Pressure, kPa	Mass density, kg/m3	uncertainty
298.15	101	872.79	0.36

System: 1-chlorooctane; phases: Liquid
Property: Refractive index (Na D-line) (Liquid); method: Standard Abbe refractometry
Temperature, K	Pressure, kPa	Refractive index (Na D-line)	uncertainty
298.15	101.325	1.4282	0.0004

System: 1-chlorooctane; phases: Liquid
Property: Mass density, kg/m3 (Liquid); method: VIBTUB::UFactor:4
Temperature, K	Pressure, kPa	Mass density, kg/m3	uncertainty
298.15	101	868.71	0.37

System: 1-chlorobutane + butyl ethanoate; phases: Liquid
Fixed: Temperature, K = 298.15
Fixed: Pressure, kPa = 101
Property: Viscosity, Pa*s (Liquid); method: Capillary tube (Ostwald; Ubbelohde) method
Mole fraction of butyl ethanoate	Viscosity, Pa*s	uncertainty
0.0503	0.00042	5e-06
0.1111	0.000432	5e-06
0.1527	0.000441	5e-06
0.2003	0.000451	5e-06
0.2996	0.000473	5e-06
0.3493	0.000484	5e-06
0.3978	0.000495	5e-06
0.4508	0.000507	5e-06
0.4997	0.000519	5e-06
0.55	0.000531	5e-06
0.5985	0.000543	5e-06
0.6501	0.000555	5e-06
0.7002	0.000568	6e-06
0.7493	0.00058	6e-06
0.8042	0.000594	6e-06
0.85	0.000606	6e-06
0.8991	0.000619	6e-06

System: 1-chlorobutane + butyl ethanoate; phases: Liquid
Fixed: Temperature, K = 298.15
Fixed: Pressure, kPa = 101
Property: Refractive index (Na D-line) (Liquid); method: Standard Abbe refractometry
Mole fraction of butyl ethanoate	Refractive index (Na D-line)	uncertainty
0	1.3996	0.0004
0.0503	1.3989	0.0004
0.1111	1.3981	0.0004
0.1527	1.3976	0.0004
0.2003	1.3971	0.0004
0.2996	1.3961	0.0004
0.3493	1.3956	0.0004
0.3978	1.3952	0.0004
0.4508	1.3947	0.0004
0.4997	1.3943	0.0004
0.55	1.3939	0.0004
0.5985	1.3936	0.0004
0.6501	1.3933	0.0004
0.7002	1.393	0.0004
0.7493	1.3928	0.0004
0.8042	1.3925	0.0004
0.85	1.3923	0.0004
0.8991	1.3921	0.0004
1	1.3918	0.0004

System: 1-chlorobutane + butyl ethanoate; phases: Liquid
Fixed: Temperature, K = 298.15
Fixed: Pressure, kPa = 101
Property: Mass density, kg/m3 (Liquid); method: VIBTUB:UFactor:4
Mole fraction of butyl ethanoate	Mass density, kg/m3	uncertainty
0	880.87	0.35
0.0503	880.41	0.35
0.1111	879.89	0.35
0.1527	879.56	0.35
0.2003	879.19	0.35
0.2996	878.52	0.35
0.3493	878.23	0.35
0.3978	877.97	0.35
0.4508	877.72	0.35
0.4997	877.51	0.35
0.55	877.31	0.35
0.5985	877.15	0.35
0.6501	876.99	0.35
0.7002	876.84	0.35
0.7493	876.72	0.36
0.8042	876.6	0.36
0.85	876.51	0.36
0.8991	876.43	0.36
1	876.28	0.36

System: butyl ethanoate + 1-chloropentane; phases: Liquid
Fixed: Temperature, K = 298.15
Fixed: Pressure, kPa = 101
Property: Viscosity, Pa*s (Liquid); method: Capillary tube (Ostwald; Ubbelohde) method
Mole fraction of butyl ethanoate	Viscosity, Pa*s	uncertainty
0.05	0.00055	6e-06
0.1	0.000552	6e-06
0.15	0.000554	6e-06
0.2	0.000557	6e-06
0.3	0.000563	6e-06
0.35	0.000567	6e-06
0.4	0.000571	6e-06
0.5	0.00058	6e-06
0.6	0.000591	6e-06
0.7019	0.000603	6e-06
0.75	0.00061	6e-06
0.7998	0.000616	6e-06
0.9	0.000631	6e-06

System: butyl ethanoate + 1-chloropentane; phases: Liquid
Fixed: Temperature, K = 298.15
Fixed: Pressure, kPa = 101
Property: Refractive index (Na D-line) (Liquid); method: Standard Abbe refractometry
Mole fraction of butyl ethanoate	Refractive index (Na D-line)	uncertainty
0	1.4097	0.0004
0.05	1.4081	0.0004
0.1	1.4065	0.0004
0.15	1.405	0.0004
0.2	1.4036	0.0004
0.3	1.401	0.0004
0.35	1.3998	0.0004
0.4	1.3987	0.0004
0.5	1.3967	0.0004
0.6	1.395	0.0004
0.7019	1.3936	0.0004
0.75	1.3931	0.0004
0.7998	1.3926	0.0004
0.9	1.3921	0.0004
1	1.3918	0.0004

System: butyl ethanoate + 1-chloropentane; phases: Liquid
Fixed: Temperature, K = 298.15
Fixed: Pressure, kPa = 101
Property: Mass density, kg/m3 (Liquid); method: VIBTUB:UFactor:4
Mole fraction of butyl ethanoate	Mass density, kg/m3	uncertainty
0	876.93	0.47
0.05	876.71	0.46
0.1	876.44	0.45
0.15	876.14	0.45
0.2	875.89	0.44
0.3	875.46	0.43
0.35	875.29	0.42
0.4	875.2	0.42
0.5	875.11	0.4
0.6	875.15	0.39
0.7019	875.34	0.38
0.75	875.48	0.38
0.7998	875.62	0.37
0.9	875.94	0.36
1	876.28	0.36

System: butyl ethanoate + 1-chlorohexane; phases: Liquid
Fixed: Temperature, K = 298.15
Fixed: Pressure, kPa = 101
Property: Viscosity, Pa*s (Liquid); method: Capillary tube (Ostwald; Ubbelohde) method
Mole fraction of butyl ethanoate	Viscosity, Pa*s	uncertainty
0.0568	0.000662	7e-06
0.1099	0.000659	6e-06
0.1638	0.000657	6e-06
0.2188	0.000655	6e-06
0.3237	0.000652	6e-06
0.3745	0.000651	6e-06
0.4271	0.00065	6e-06
0.4773	0.000649	6e-06
0.5286	0.000648	6e-06
0.6265	0.000646	6e-06
0.6753	0.000645	6e-06
0.7232	0.000645	6e-06
0.8171	0.000645	6e-06
0.8631	0.000645	6e-06

System: butyl ethanoate + 1-chlorohexane; phases: Liquid
Fixed: Temperature, K = 298.15
Fixed: Pressure, kPa = 101
Property: Refractive index (Na D-line) (Liquid); method: Standard Abbe refractometry
Mole fraction of butyl ethanoate	Refractive index (Na D-line)	uncertainty
0	1.4171	0.0004
0.0568	1.4159	0.0004
0.1099	1.4148	0.0004
0.1638	1.4137	0.0004
0.2188	1.4125	0.0004
0.3237	1.4102	0.0004
0.3745	1.4091	0.0004
0.4271	1.4078	0.0004
0.4773	1.4066	0.0004
0.5286	1.4053	0.0004
0.6265	1.4028	0.0004
0.6753	1.4015	0.0004
0.7232	1.4001	0.0004
0.8171	1.3973	0.0004
0.8631	1.3959	0.0004
1	1.3918	0.0004

System: butyl ethanoate + 1-chlorohexane; phases: Liquid
Fixed: Temperature, K = 298.15
Fixed: Pressure, kPa = 101
Property: Mass density, kg/m3 (Liquid); method: VIBTUB:UFactor:4
Mole fraction of butyl ethanoate	Mass density, kg/m3	uncertainty
0	873.39	0.47
0.0568	873.06	0.47
0.1099	872.97	0.46
0.1638	872.88	0.45
0.2188	872.81	0.44
0.3237	872.8	0.43
0.3745	872.83	0.42
0.4271	872.87	0.42
0.4773	872.98	0.41
0.5286	873.11	0.4
0.6265	873.53	0.39
0.6753	873.78	0.39
0.7232	874.04	0.38
0.8171	874.66	0.37
0.8631	875.01	0.37
1	876.28	0.36

System: butyl ethanoate + 1-chloroheptane; phases: Liquid
Fixed: Temperature, K = 298.15
Fixed: Pressure, kPa = 101
Property: Viscosity, Pa*s (Liquid); method: Capillary tube (Ostwald; Ubbelohde) method
Mole fraction of butyl ethanoate	Viscosity, Pa*s	uncertainty
0.0505	0.000828	7e-06
0.1006	0.000815	7e-06
0.1503	0.000803	6e-06
0.2014	0.000792	6e-06
0.3003	0.00077	6e-06
0.3505	0.000759	6e-06
0.4007	0.000749	6e-06
0.4503	0.000739	6e-06
0.5006	0.000729	6e-06
0.6001	0.00071	6e-06
0.65	0.0007	6e-06
0.6996	0.000691	6e-06
0.7499	0.000682	6e-06
0.8001	0.000674	6e-06
0.9	0.000659	6e-06

System: butyl ethanoate + 1-chloroheptane; phases: Liquid
Fixed: Temperature, K = 298.15
Fixed: Pressure, kPa = 101
Property: Refractive index (Na D-line) (Liquid); method: Standard Abbe refractometry
Mole fraction of butyl ethanoate	Refractive index (Na D-line)	uncertainty
0	1.4236	0.0004
0.0505	1.4219	0.0004
0.1006	1.4203	0.0004
0.1503	1.4189	0.0004
0.2014	1.4175	0.0004
0.3003	1.4147	0.0004
0.3505	1.4133	0.0004
0.4007	1.4118	0.0004
0.4503	1.4103	0.0004
0.5006	1.4087	0.0004
0.6001	1.4054	0.0004
0.65	1.4037	0.0004
0.6996	1.402	0.0004
0.7499	1.4003	0.0004
0.8001	1.3986	0.0004
0.9	1.3952	0.0004
1	1.3918	0.0004

System: butyl ethanoate + 1-chloroheptane; phases: Liquid
Fixed: Temperature, K = 298.15
Fixed: Pressure, kPa = 101
Property: Mass density, kg/m3 (Liquid); method: VIBTUB:UFactor:4
Mole fraction of butyl ethanoate	Mass density, kg/m3	uncertainty
0	872.79	0.36
0.0505	872.6	0.36
0.1006	872.52	0.36
0.1503	872.45	0.36
0.2014	872.41	0.36
0.3003	872.39	0.36
0.3505	872.42	0.36
0.4007	872.48	0.36
0.4503	872.56	0.36
0.5006	872.71	0.36
0.6001	873.07	0.36
0.65	873.32	0.36
0.6996	873.64	0.36
0.7499	873.97	0.36
0.8001	874.32	0.36
0.9	875.2	0.36
1	876.28	0.36

System: 1-chlorooctane + butyl ethanoate; phases: Liquid
Fixed: Temperature, K = 298.15
Fixed: Pressure, kPa = 101
Property: Viscosity, Pa*s (Liquid); method: Capillary tube (Ostwald; Ubbelohde) method
Mole fraction of butyl ethanoate	Viscosity, Pa*s	uncertainty
0.0507	0.001032	8e-06
0.1002	0.001007	7e-06
0.1498	0.000981	7e-06
0.1999	0.000959	7e-06
0.3001	0.000911	7e-06
0.3496	0.000889	7e-06
0.4001	0.000867	7e-06
0.4503	0.000846	7e-06
0.5	0.000825	7e-06
0.6019	0.000784	6e-06
0.6999	0.000745	6e-06
0.7998	0.000708	6e-06
0.8999	0.000674	6e-06

System: 1-chlorooctane + butyl ethanoate; phases: Liquid
Fixed: Temperature, K = 298.15
Fixed: Pressure, kPa = 101
Property: Refractive index (Na D-line) (Liquid); method: Standard Abbe refractometry
Mole fraction of butyl ethanoate	Refractive index (Na D-line)	uncertainty
0	1.4282	0.0004
0.0507	1.4271	0.0004
0.1002	1.4264	0.0004
0.1498	1.4256	0.0004
0.1999	1.4247	0.0004
0.3001	1.4222	0.0004
0.3496	1.4208	0.0004
0.4001	1.4192	0.0004
0.4503	1.4174	0.0004
0.5	1.4156	0.0004
0.6019	1.4114	0.0004
0.6999	1.4069	0.0004
0.7998	1.4018	0.0004
0.8999	1.3968	0.0004
1	1.3918	0.0004

System: 1-chlorooctane + butyl ethanoate; phases: Liquid
Fixed: Temperature, K = 298.15
Fixed: Pressure, kPa = 101
Property: Mass density, kg/m3 (Liquid); method: VIBTUB:UFactor:4
Mole fraction of butyl ethanoate	Mass density, kg/m3	uncertainty
0	868.71	0.37
0.0507	868.69	0.37
0.1002	868.7	0.37
0.1498	868.74	0.37
0.1999	868.73	0.37
0.3001	868.77	0.37
0.3496	868.82	0.37
0.4001	868.99	0.37
0.4503	869.17	0.37
0.5	869.45	0.37
0.6019	870.13	0.36
0.6999	871.1	0.36
0.7998	872.48	0.36
0.8999	874.25	0.36
1	876.28	0.36
