Measured thermophysical data. Application of the Multi-Current Transient Hot-Wire Technique for Absolute Measurements of the Thermal Conductivity of Glycols
Source: Int. J. Thermophys., 2005, 10.1007/s10765-005-5568-4
Compound 1: 1,2-ethanediol, C2H6O2, InChI=1S/C2H6O2/c3-1-2-4/h3-4H,1-2H2, purity 99.5%
Compound 2: diethylene glycol, C4H10O3, InChI=1S/C4H10O3/c5-1-3-7-4-2-6/h5-6H,1-4H2, purity 99%
Compound 3: triethylene glycol, C6H14O4, InChI=1S/C6H14O4/c7-1-3-9-5-6-10-4-2-8/h7-8H,1-6H2, purity 99%
Compound 4: tetraethylene glycol, C8H18O5, InChI=1S/C8H18O5/c9-1-3-11-5-7-13-8-6-12-4-2-10/h9-10H,1-8H2, purity 99%

System: 1,2-ethanediol; phases: Liquid
Fixed: Pressure, kPa = 101.325
Property: Thermal conductivity, W/m/K (Liquid); method: Hot disk method
Temperature, K	Thermal conductivity, W/m/K	uncertainty
298.2	0.2496	0.0053
308.1	0.2518	0.0053
318.3	0.2539	0.0055
328.3	0.2561	0.0055
338.3	0.258	0.0054

System: diethylene glycol; phases: Liquid
Fixed: Pressure, kPa = 101.325
Property: Thermal conductivity, W/m/K (Liquid); method: Hot disk method
Temperature, K	Thermal conductivity, W/m/K	uncertainty
298.1	0.1994	0.0044
308	0.2012	0.0044
318.2	0.2038	0.0047
328.4	0.205	0.0045
338.2	0.2068	0.0045

System: triethylene glycol; phases: Liquid
Fixed: Pressure, kPa = 101.325
Property: Thermal conductivity, W/m/K (Liquid); method: Hot disk method
Temperature, K	Thermal conductivity, W/m/K	uncertainty
298.1	0.1923	0.0042
308.2	0.1932	0.0042
318.4	0.1939	0.0042
328.4	0.1945	0.0042
338.4	0.1945	0.0043

System: tetraethylene glycol; phases: Liquid
Fixed: Pressure, kPa = 101.325
Property: Thermal conductivity, W/m/K (Liquid); method: Hot disk method
Temperature, K	Thermal conductivity, W/m/K	uncertainty
298.2	0.1849	0.0041
308.2	0.1856	0.0041
318.3	0.1864	0.0041
328.2	0.1875	0.0041
338.2	0.1877	0.0041
