Measured thermophysical data. High-Pressure Viscosity Measurements for the Ethanol + Toluene Binary System
Source: Int. J. Thermophys., 2005, 10.1007/s10765-005-8089-2
Compound 1: toluene, C7H8, InChI=1S/C7H8/c1-7-5-3-2-4-6-7/h2-6H,1H3
Compound 2: ethanol, C2H6O, InChI=1S/C2H6O/c1-2-3/h3H,2H2,1H3
Compound 3: methanol, CH4O, InChI=1S/CH4O/c1-2/h2H,1H3

System: ethanol; phases: Liquid
Property: Viscosity, Pa*s (Liquid); method: Falling or rolling sphere viscometry
Temperature, K	Pressure, kPa	Viscosity, Pa*s	uncertainty
293.15	100	0.001194	2.6e-05
293.15	20000	0.001344	2.9e-05
293.15	40000	0.001494	3.2e-05
293.15	60000	0.001647	3.5e-05
293.15	80000	0.001797	3.9e-05
293.15	100000	0.001955	4.2e-05
313.15	100	0.000826	1.8e-05
313.15	20000	0.000948	2e-05
313.15	40000	0.001059	2.3e-05
313.15	60000	0.001171	2.5e-05
313.15	80000	0.001282	2.8e-05
313.15	100000	0.001392	3e-05
333.15	100	0.00059	1.3e-05
333.15	20000	0.000683	1.5e-05
333.15	40000	0.000769	1.7e-05
333.15	60000	0.000851	1.8e-05
333.15	80000	0.000934	2e-05
333.15	100000	0.001015	2.2e-05
353.15	20000	0.00051	1.1e-05
353.15	40000	0.000574	1.2e-05
353.15	60000	0.000636	1.4e-05
353.15	80000	0.000699	1.5e-05
353.15	100000	0.000763	1.6e-05

System: methanol; phases: Liquid
Property: Viscosity, Pa*s (Liquid); method: Capillary tube (Ostwald; Ubbelohde) method
Temperature, K	Pressure, kPa	Viscosity, Pa*s	uncertainty
293.15	100	0.000583	1.2e-05
293.15	20000	0.000646	1.4e-05
293.15	40000	0.000706	1.5e-05
293.15	60000	0.000767	1.6e-05
293.15	80000	0.00083	1.7e-05
293.15	100000	0.000894	1.9e-05
313.15	100	0.000445	9e-06
313.15	20000	0.000497	1.1e-05
313.15	40000	0.000546	1.2e-05
313.15	60000	0.000593	1.3e-05
313.15	80000	0.00064	1.3e-05
313.15	100000	0.000683	1.4e-05
333.15	100	0.000343	7e-06
333.15	20000	0.000386	8e-06
333.15	40000	0.000424	9e-06
333.15	60000	0.000462	1e-05
333.15	80000	0.000501	1.1e-05
333.15	100000	0.000543	1.1e-05
353.15	20000	0.000303	7e-06
353.15	40000	0.000337	7e-06
353.15	60000	0.000368	8e-06
353.15	80000	0.0004	9e-06
353.15	100000	0.000433	9e-06

System: ethanol + toluene; phases: Liquid
Property: Viscosity, Pa*s (Liquid); method: Falling or rolling sphere viscometry
Mole fraction of ethanol	Temperature, K	Pressure, kPa	Viscosity, Pa*s	uncertainty
0.125	293.15	100	0.000588	1.3e-05
0.125	293.15	20000	0.00068	1.5e-05
0.125	293.15	40000	0.000781	1.7e-05
0.125	293.15	60000	0.000893	1.9e-05
0.125	293.15	80000	0.001016	2.2e-05
0.125	293.15	100000	0.001153	2.5e-05
0.125	313.15	100	0.000462	1e-05
0.125	313.15	20000	0.000538	1.2e-05
0.125	313.15	40000	0.000619	1.3e-05
0.125	313.15	60000	0.000705	1.5e-05
0.125	313.15	80000	0.000796	1.7e-05
0.125	313.15	100000	0.000893	1.9e-05
0.125	333.15	100	0.00037	8e-06
0.125	333.15	20000	0.000433	9e-06
0.125	333.15	40000	0.000499	1.1e-05
0.125	333.15	60000	0.000568	1.2e-05
0.125	333.15	80000	0.000639	1.4e-05
0.125	333.15	100000	0.000714	1.5e-05
0.125	353.15	100	0.000306	7e-06
0.125	353.15	20000	0.000358	8e-06
0.125	353.15	40000	0.000412	9e-06
0.125	353.15	60000	0.000468	1e-05
0.125	353.15	80000	0.000526	1.1e-05
0.125	353.15	100000	0.000588	1.3e-05
0.25	293.15	100	0.000609	1.3e-05
0.25	293.15	20000	0.00071	1.5e-05
0.25	293.15	40000	0.000816	1.7e-05
0.25	293.15	60000	0.000931	2e-05
0.25	293.15	80000	0.001054	2.3e-05
0.25	293.15	100000	0.001189	2.5e-05
0.25	313.15	100	0.000471	1e-05
0.25	313.15	20000	0.000549	1.2e-05
0.25	313.15	40000	0.000632	1.4e-05
0.25	313.15	60000	0.000718	1.5e-05
0.25	313.15	80000	0.00081	1.7e-05
0.25	313.15	100000	0.000907	1.9e-05
0.25	333.15	100	0.000373	8e-06
0.25	333.15	20000	0.000437	9e-06
0.25	333.15	40000	0.000503	1.1e-05
0.25	333.15	60000	0.000571	1.2e-05
0.25	333.15	80000	0.000643	1.4e-05
0.25	333.15	100000	0.000718	1.5e-05
0.25	353.15	20000	0.000356	8e-06
0.25	353.15	40000	0.000411	9e-06
0.25	353.15	60000	0.000467	1e-05
0.25	353.15	80000	0.000525	1.1e-05
0.25	353.15	100000	0.000586	1.3e-05
0.375	293.15	100	0.000652	1.4e-05
0.375	293.15	20000	0.000754	1.6e-05
0.375	293.15	40000	0.000866	1.9e-05
0.375	293.15	60000	0.000986	2.1e-05
0.375	293.15	80000	0.001114	2.4e-05
0.375	293.15	100000	0.001251	2.7e-05
0.375	313.15	100	0.00049	1.1e-05
0.375	313.15	20000	0.000573	1.2e-05
0.375	313.15	40000	0.000658	1.4e-05
0.375	313.15	60000	0.000747	1.6e-05
0.375	313.15	80000	0.000841	1.8e-05
0.375	313.15	100000	0.00094	2e-05
0.375	333.15	100	0.000385	8e-06
0.375	333.15	20000	0.00045	1e-05
0.375	333.15	40000	0.000518	1.1e-05
0.375	333.15	60000	0.000588	1.3e-05
0.375	333.15	80000	0.000662	1.4e-05
0.375	333.15	100000	0.000739	1.6e-05
0.375	353.15	20000	0.000361	8e-06
0.375	353.15	40000	0.000417	9e-06
0.375	353.15	60000	0.000474	1e-05
0.375	353.15	80000	0.000532	1.1e-05
0.375	353.15	100000	0.000593	1.3e-05
0.5	293.15	100	0.00071	1.5e-05
0.5	293.15	20000	0.000815	1.7e-05
0.5	293.15	40000	0.000931	2e-05
0.5	293.15	60000	0.001055	2.3e-05
0.5	293.15	80000	0.001187	2.5e-05
0.5	293.15	100000	0.001331	2.9e-05
0.5	313.15	100	0.000525	1.1e-05
0.5	313.15	20000	0.000611	1.3e-05
0.5	313.15	40000	0.000699	1.5e-05
0.5	313.15	60000	0.000792	1.7e-05
0.5	313.15	80000	0.000889	1.9e-05
0.5	313.15	100000	0.000991	2.1e-05
0.5	333.15	100	0.000405	9e-06
0.5	333.15	20000	0.00047	1e-05
0.5	333.15	40000	0.00054	1.2e-05
0.5	333.15	60000	0.000611	1.3e-05
0.5	333.15	80000	0.000686	1.5e-05
0.5	333.15	100000	0.000763	1.6e-05
0.5	353.15	20000	0.000372	8e-06
0.5	353.15	40000	0.000427	9e-06
0.5	353.15	60000	0.000484	1e-05
0.5	353.15	80000	0.000541	1.2e-05
0.5	353.15	100000	0.000601	1.3e-05
0.625	293.15	100	0.00079	1.7e-05
0.625	293.15	20000	0.000909	1.9e-05
0.625	293.15	40000	0.001034	2.2e-05
0.625	293.15	60000	0.001166	2.5e-05
0.625	293.15	80000	0.001302	2.8e-05
0.625	293.15	100000	0.001449	3.1e-05
0.625	313.15	100	0.000574	1.2e-05
0.625	313.15	20000	0.000662	1.4e-05
0.625	313.15	40000	0.000757	1.6e-05
0.625	313.15	60000	0.000854	1.8e-05
0.625	313.15	80000	0.000955	2.1e-05
0.625	313.15	100000	0.001058	2.3e-05
0.625	333.15	100	0.000431	9e-06
0.625	333.15	20000	0.000501	1.1e-05
0.625	333.15	40000	0.000573	1.2e-05
0.625	333.15	60000	0.000647	1.4e-05
0.625	333.15	80000	0.000724	1.6e-05
0.625	333.15	100000	0.000804	1.7e-05
0.625	353.15	20000	0.00039	8e-06
0.625	353.15	40000	0.000446	1e-05
0.625	353.15	60000	0.000504	1.1e-05
0.625	353.15	80000	0.000564	1.2e-05
0.625	353.15	100000	0.000625	1.3e-05
0.75	293.15	100	0.000899	1.9e-05
0.75	293.15	20000	0.001014	2.2e-05
0.75	293.15	40000	0.001152	2.5e-05
0.75	293.15	60000	0.001297	2.8e-05
0.75	293.15	80000	0.001444	3.1e-05
0.75	293.15	100000	0.0016	3.4e-05
0.75	313.15	100	0.000635	1.4e-05
0.75	313.15	20000	0.000729	1.6e-05
0.75	313.15	40000	0.00083	1.8e-05
0.75	313.15	60000	0.000933	2e-05
0.75	313.15	80000	0.001038	2.2e-05
0.75	313.15	100000	0.001145	2.5e-05
0.75	333.15	100	0.000468	1e-05
0.75	333.15	20000	0.000544	1.2e-05
0.75	333.15	40000	0.000621	1.3e-05
0.75	333.15	60000	0.000697	1.5e-05
0.75	333.15	80000	0.000776	1.7e-05
0.75	333.15	100000	0.000856	1.8e-05
0.75	353.15	20000	0.000415	9e-06
0.75	353.15	40000	0.000476	1e-05
0.75	353.15	60000	0.000536	1.2e-05
0.75	353.15	80000	0.000597	1.3e-05
0.75	353.15	100000	0.00066	1.4e-05
0.875	293.15	100	0.001023	2.2e-05
0.875	293.15	20000	0.001157	2.5e-05
0.875	293.15	40000	0.001306	2.8e-05
0.875	293.15	60000	0.001457	3.1e-05
0.875	293.15	80000	0.001604	3.4e-05
0.875	293.15	100000	0.001757	3.8e-05
0.875	313.15	100	0.000717	1.5e-05
0.875	313.15	20000	0.000825	1.8e-05
0.875	313.15	40000	0.000932	2e-05
0.875	313.15	60000	0.001039	2.2e-05
0.875	313.15	80000	0.001147	2.5e-05
0.875	313.15	100000	0.001255	2.7e-05
0.875	333.15	100	0.000523	1.1e-05
0.875	333.15	20000	0.000603	1.3e-05
0.875	333.15	40000	0.000684	1.5e-05
0.875	333.15	60000	0.000763	1.6e-05
0.875	333.15	80000	0.000844	1.8e-05
0.875	333.15	100000	0.000926	2e-05
0.875	353.15	20000	0.000453	1e-05
0.875	353.15	40000	0.000516	1.1e-05
0.875	353.15	60000	0.000577	1.2e-05
0.875	353.15	80000	0.00064	1.4e-05
0.875	353.15	100000	0.000703	1.5e-05
1	293.15	100	0.001194	2.6e-05
1	293.15	20000	0.001344	2.9e-05
1	293.15	40000	0.001494	3.2e-05
1	293.15	60000	0.001647	3.5e-05
1	293.15	80000	0.001797	3.9e-05
1	293.15	100000	0.001955	4.2e-05
1	313.15	100	0.000826	1.8e-05
1	313.15	20000	0.000948	2e-05
1	313.15	40000	0.001059	2.3e-05
1	313.15	60000	0.001171	2.5e-05
1	313.15	80000	0.001282	2.8e-05
1	313.15	100000	0.001392	3e-05
1	333.15	100	0.00059	1.3e-05
1	333.15	20000	0.000683	1.5e-05
1	333.15	40000	0.000769	1.7e-05
1	333.15	60000	0.000851	1.8e-05
1	333.15	80000	0.000934	2e-05
1	333.15	100000	0.001015	2.2e-05
1	353.15	20000	0.00051	1.1e-05
1	353.15	40000	0.000574	1.2e-05
1	353.15	60000	0.000636	1.4e-05
1	353.15	80000	0.000699	1.5e-05
1	353.15	100000	0.000763	1.6e-05
