Measured thermophysical data. Densities and Volumetric Properties of Binary Mixtures of Butyl Acrylate with Benzene, Toluene, o-Xylene, m-Xylene, p-Xylene, and Mesitylene at Temperatures from 288.15 K to 318.15 K
Source: Int. J. Thermophys., 2010, 10.1007/s10765-010-0768-y
Compound 1: benzene, C6H6, InChI=1S/C6H6/c1-2-4-6-5-3-1/h1-6H, purity 99.8%
Compound 2: toluene, C7H8, InChI=1S/C7H8/c1-7-5-3-2-4-6-7/h2-6H,1H3, purity 99.8%
Compound 3: 1,2-dimethylbenzene, C8H10, InChI=1S/C8H10/c1-7-5-3-4-6-8(7)2/h3-6H,1-2H3, purity 99.7%
Compound 4: 1,3-dimethylbenzene, C8H10, InChI=1S/C8H10/c1-7-4-3-5-8(2)6-7/h3-6H,1-2H3, purity 99.7%
Compound 5: 1,4-dimethylbenzene, C8H10, InChI=1S/C8H10/c1-7-3-5-8(2)6-4-7/h3-6H,1-2H3, purity 99.7%
Compound 6: 1,3,5-trimethylbenzene, C9H12, InChI=1S/C9H12/c1-7-4-8(2)6-9(3)5-7/h4-6H,1-3H3, purity 99.5%
Compound 7: butyl 2-propenoate, C7H12O2, InChI=1S/C7H12O2/c1-3-5-6-9-7(8)4-2/h4H,2-3,5-6H2,1H3, purity 99.4%

System: benzene; phases: Liquid
Fixed: Pressure, kPa = 101
Property: Mass density, kg/m3 (Liquid); method: Pycnometric method
Temperature, K	Mass density, kg/m3	uncertainty
288.15	884.3	0.22
293.15	878.95	0.2
298.15	873.61	0.21
303.15	868.26	0.22
308.15	862.9	0.23
313.15	857.56	0.24
318.15	852.23	0.25

System: toluene; phases: Liquid
Fixed: Pressure, kPa = 101
Property: Mass density, kg/m3 (Liquid); method: Pycnometric method
Temperature, K	Mass density, kg/m3	uncertainty
288.15	871.79	0.21
293.15	867.08	0.2
298.15	862.36	0.21
303.15	857.64	0.22
308.15	852.93	0.23
313.15	848.21	0.24
318.15	843.49	0.25

System: 1,2-dimethylbenzene; phases: Liquid
Fixed: Pressure, kPa = 101
Property: Mass density, kg/m3 (Liquid); method: Pycnometric method
Temperature, K	Mass density, kg/m3	uncertainty
288.15	884.09	0.22
293.15	879.83	0.21
298.15	875.57	0.22
303.15	871.31	0.23
308.15	867.05	0.24
313.15	862.79	0.25
318.15	858.53	0.26

System: 1,3-dimethylbenzene; phases: Liquid
Fixed: Pressure, kPa = 101
Property: Mass density, kg/m3 (Liquid); method: Pycnometric method
Temperature, K	Mass density, kg/m3	uncertainty
288.15	868.59	0.22
293.15	864.31	0.21
298.15	860.02	0.22
303.15	855.74	0.23
308.15	851.45	0.24
313.15	847.17	0.25
318.15	842.88	0.26

System: 1,4-dimethylbenzene; phases: Liquid
Fixed: Pressure, kPa = 101
Property: Mass density, kg/m3 (Liquid); method: Pycnometric method
Temperature, K	Mass density, kg/m3	uncertainty
288.15	865.52	0.22
293.15	861.17	0.2
298.15	856.82	0.21
303.15	852.47	0.22
308.15	848.12	0.23
313.15	843.77	0.24
318.15	839.42	0.25

System: 1,3,5-trimethylbenzene; phases: Liquid
Fixed: Pressure, kPa = 101
Property: Mass density, kg/m3 (Liquid); method: Pycnometric method
Temperature, K	Mass density, kg/m3	uncertainty
288.15	869.28	0.24
293.15	865.37	0.23
298.15	861.45	0.24
303.15	857.54	0.25
308.15	853.63	0.26
313.15	849.71	0.27
318.15	845.8	0.28

System: butyl 2-propenoate; phases: Liquid
Fixed: Pressure, kPa = 101
Property: Mass density, kg/m3 (Liquid); method: Pycnometric method
Temperature, K	Mass density, kg/m3	uncertainty
288.15	903.6	0.27
293.15	898.85	0.26
298.15	894.1	0.27
303.15	889.35	0.28
308.15	884.6	0.29
313.15	879.85	0.3
318.15	875.1	0.31

System: benzene + butyl 2-propenoate; phases: Liquid
Fixed: Pressure, kPa = 101
Property: Mass density, kg/m3 (Liquid); method: Pycnometric method
Temperature, K	Mole fraction of butyl 2-propenoate	Mass density, kg/m3	uncertainty
288.15	0	884.3	0.22
288.15	0.0722	887.23	0.22
288.15	0.142	889.79	0.22
288.15	0.2062	891.94	0.22
288.15	0.2794	894.12	0.23
288.15	0.3586	896.24	0.23
288.15	0.4363	898.02	0.24
288.15	0.5074	899.4	0.24
288.15	0.5818	900.63	0.24
288.15	0.6423	901.47	0.25
288.15	0.7226	902.36	0.25
288.15	0.7902	902.91	0.26
288.15	0.8563	903.29	0.26
288.15	0.9305	903.53	0.27
288.15	1	903.6	0.27
293.15	0	878.95	0.2
293.15	0.0722	881.89	0.21
293.15	0.142	884.48	0.21
293.15	0.2062	886.65	0.21
293.15	0.2794	888.87	0.22
293.15	0.3586	891.02	0.22
293.15	0.4363	892.83	0.22
293.15	0.5074	894.25	0.23
293.15	0.5818	895.53	0.23
293.15	0.6423	896.4	0.24
293.15	0.7226	897.34	0.24
293.15	0.7902	897.94	0.24
293.15	0.8563	898.38	0.25
293.15	0.9305	898.69	0.25
293.15	1	898.85	0.26
298.15	0	873.61	0.21
298.15	0.0722	876.56	0.22
298.15	0.142	879.17	0.22
298.15	0.2062	881.36	0.22
298.15	0.2794	883.62	0.23
298.15	0.3586	885.8	0.23
298.15	0.4363	887.64	0.23
298.15	0.5074	889.11	0.24
298.15	0.5818	890.43	0.24
298.15	0.6423	891.33	0.24
298.15	0.7226	892.32	0.25
298.15	0.7902	892.97	0.25
298.15	0.8563	893.47	0.26
298.15	0.9305	893.85	0.26
298.15	1	894.1	0.27
303.15	0	868.26	0.22
303.15	0.0722	871.23	0.23
303.15	0.142	873.86	0.23
303.15	0.2062	876.08	0.23
303.15	0.2794	878.37	0.23
303.15	0.3586	880.58	0.24
303.15	0.4363	882.46	0.24
303.15	0.5074	883.97	0.25
303.15	0.5818	885.33	0.25
303.15	0.6423	886.26	0.25
303.15	0.7226	887.3	0.26
303.15	0.7902	888	0.26
303.15	0.8563	888.56	0.27
303.15	0.9305	889.01	0.27
303.15	1	889.35	0.28
308.15	0	862.9	0.23
308.15	0.0722	865.9	0.24
308.15	0.142	868.56	0.24
308.15	0.2062	870.8	0.24
308.15	0.2794	873.12	0.24
308.15	0.3586	875.36	0.25
308.15	0.4363	877.28	0.25
308.15	0.5074	878.83	0.26
308.15	0.5818	880.23	0.26
308.15	0.6423	881.2	0.26
308.15	0.7226	882.29	0.27
308.15	0.7902	883.03	0.27
308.15	0.8563	883.65	0.28
308.15	0.9305	884.18	0.28
308.15	1	884.6	0.29
313.15	0	857.56	0.24
313.15	0.0722	860.57	0.25
313.15	0.142	863.26	0.25
313.15	0.2062	865.52	0.25
313.15	0.2794	867.87	0.25
313.15	0.3586	870.14	0.26
313.15	0.4363	872.1	0.26
313.15	0.5074	873.69	0.27
313.15	0.5818	875.13	0.27
313.15	0.6423	876.14	0.27
313.15	0.7226	877.28	0.28
313.15	0.7902	878.07	0.28
313.15	0.8563	878.75	0.29
313.15	0.9305	879.35	0.29
313.15	1	879.85	0.3
318.15	0	852.23	0.25
318.15	0.0722	855.24	0.26
318.15	0.142	857.96	0.26
318.15	0.2062	860.24	0.26
318.15	0.2794	862.62	0.26
318.15	0.3586	864.92	0.27
318.15	0.4363	866.92	0.27
318.15	0.5074	868.55	0.28
318.15	0.5818	870.03	0.28
318.15	0.6423	871.08	0.28
318.15	0.7226	872.27	0.29
318.15	0.7902	873.11	0.29
318.15	0.8563	873.85	0.3
318.15	0.9305	874.52	0.3
318.15	1	875.1	0.31

System: toluene + butyl 2-propenoate; phases: Liquid
Fixed: Pressure, kPa = 101
Property: Mass density, kg/m3 (Liquid); method: Pycnometric method
Temperature, K	Mole fraction of butyl 2-propenoate	Mass density, kg/m3	uncertainty
288.15	0	871.79	0.21
288.15	0.0704	875.4	0.21
288.15	0.1402	878.72	0.22
288.15	0.2054	881.63	0.22
288.15	0.2799	884.72	0.22
288.15	0.3604	887.81	0.23
288.15	0.4338	890.4	0.23
288.15	0.5098	892.88	0.24
288.15	0.5836	895.08	0.24
288.15	0.6584	897.1	0.25
288.15	0.7198	898.6	0.25
288.15	0.7912	900.18	0.26
288.15	0.8578	901.48	0.26
288.15	0.9324	902.74	0.27
288.15	1	903.6	0.27
293.15	0	867.08	0.2
293.15	0.0704	870.63	0.2
293.15	0.1402	873.92	0.21
293.15	0.2054	876.8	0.21
293.15	0.2799	879.86	0.21
293.15	0.3604	882.94	0.22
293.15	0.4338	885.52	0.22
293.15	0.5098	888	0.22
293.15	0.5836	890.19	0.23
293.15	0.6584	892.22	0.23
293.15	0.7198	893.73	0.24
293.15	0.7912	895.32	0.24
293.15	0.8578	896.64	0.25
293.15	0.9324	897.93	0.25
293.15	1	898.85	0.26
298.15	0	862.36	0.21
298.15	0.0704	865.86	0.21
298.15	0.1402	869.12	0.22
298.15	0.2054	871.97	0.22
298.15	0.2799	875	0.22
298.15	0.3604	878.07	0.23
298.15	0.4338	880.64	0.23
298.15	0.5098	883.12	0.23
298.15	0.5836	885.31	0.24
298.15	0.6584	887.34	0.24
298.15	0.7198	888.86	0.25
298.15	0.7912	890.46	0.25
298.15	0.8578	891.8	0.26
298.15	0.9324	893.12	0.26
298.15	1	894.1	0.27
303.15	0	857.64	0.22
303.15	0.0704	861.09	0.22
303.15	0.1402	864.32	0.23
303.15	0.2054	867.14	0.23
303.15	0.2799	870.15	0.23
303.15	0.3604	873.2	0.24
303.15	0.4338	875.77	0.24
303.15	0.5098	878.24	0.24
303.15	0.5836	880.43	0.25
303.15	0.6584	882.46	0.25
303.15	0.7198	883.99	0.26
303.15	0.7912	885.6	0.26
303.15	0.8578	886.96	0.27
303.15	0.9324	888.31	0.27
303.15	1	889.35	0.28
308.15	0	852.93	0.23
308.15	0.0704	856.32	0.23
308.15	0.1402	859.52	0.24
308.15	0.2054	862.31	0.24
308.15	0.2799	865.31	0.24
308.15	0.3604	868.34	0.25
308.15	0.4338	870.9	0.25
308.15	0.5098	873.36	0.25
308.15	0.5836	875.55	0.26
308.15	0.6584	877.58	0.26
308.15	0.7198	879.12	0.27
308.15	0.7912	880.75	0.27
308.15	0.8578	882.12	0.28
308.15	0.9324	883.5	0.28
308.15	1	884.6	0.29
313.15	0	848.21	0.24
313.15	0.0704	851.55	0.24
313.15	0.1402	854.72	0.25
313.15	0.2054	857.48	0.25
313.15	0.2799	860.47	0.25
313.15	0.3604	863.48	0.26
313.15	0.4338	866.03	0.26
313.15	0.5098	868.48	0.26
313.15	0.5836	870.67	0.27
313.15	0.6584	872.7	0.27
313.15	0.7198	874.25	0.28
313.15	0.7912	875.9	0.28
313.15	0.8578	877.28	0.29
313.15	0.9324	878.69	0.29
313.15	1	879.85	0.3
318.15	0	843.49	0.25
318.15	0.0704	846.79	0.25
318.15	0.1402	849.92	0.26
318.15	0.2054	852.65	0.26
318.15	0.2799	855.63	0.26
318.15	0.3604	858.62	0.27
318.15	0.4338	861.16	0.27
318.15	0.5098	863.6	0.27
318.15	0.5836	865.79	0.28
318.15	0.6584	867.82	0.28
318.15	0.7198	869.38	0.29
318.15	0.7912	871.05	0.29
318.15	0.8578	872.44	0.3
318.15	0.9324	873.88	0.3
318.15	1	875.1	0.31

System: 1,2-dimethylbenzene + butyl 2-propenoate; phases: Liquid
Fixed: Pressure, kPa = 101
Property: Mass density, kg/m3 (Liquid); method: Pycnometric method
Temperature, K	Mole fraction of butyl 2-propenoate	Mass density, kg/m3	uncertainty
288.15	0	884.09	0.22
288.15	0.0685	885.81	0.23
288.15	0.1306	887.32	0.23
288.15	0.2018	889	0.23
288.15	0.2738	890.63	0.23
288.15	0.3654	892.61	0.24
288.15	0.4331	894.01	0.24
288.15	0.5072	895.49	0.24
288.15	0.589	897.05	0.25
288.15	0.6522	898.2	0.25
288.15	0.7283	899.51	0.26
288.15	0.7924	900.56	0.26
288.15	0.8587	901.6	0.26
288.15	0.9298	902.64	0.27
288.15	1	903.6	0.27
293.15	0	879.83	0.21
293.15	0.0685	881.5	0.21
293.15	0.1306	882.97	0.22
293.15	0.2018	884.6	0.22
293.15	0.2738	886.19	0.22
293.15	0.3654	888.12	0.23
293.15	0.4331	889.49	0.23
293.15	0.5072	890.93	0.23
293.15	0.589	892.45	0.24
293.15	0.6522	893.57	0.24
293.15	0.7283	894.85	0.24
293.15	0.7924	895.87	0.25
293.15	0.8587	896.88	0.25
293.15	0.9298	897.9	0.26
293.15	1	898.85	0.26
298.15	0	875.57	0.22
298.15	0.0685	877.19	0.22
298.15	0.1306	878.62	0.23
298.15	0.2018	880.2	0.23
298.15	0.2738	881.75	0.23
298.15	0.3654	883.63	0.24
298.15	0.4331	884.97	0.24
298.15	0.5072	886.37	0.24
298.15	0.589	887.85	0.25
298.15	0.6522	888.94	0.25
298.15	0.7283	890.19	0.25
298.15	0.7924	891.18	0.26
298.15	0.8587	892.16	0.26
298.15	0.9298	893.16	0.27
298.15	1	894.1	0.27
303.15	0	871.31	0.23
303.15	0.0685	872.88	0.23
303.15	0.1306	874.27	0.24
303.15	0.2018	875.8	0.24
303.15	0.2738	877.31	0.24
303.15	0.3654	879.14	0.25
303.15	0.4331	880.45	0.25
303.15	0.5072	881.81	0.25
303.15	0.589	883.25	0.26
303.15	0.6522	884.31	0.26
303.15	0.7283	885.53	0.26
303.15	0.7924	886.49	0.27
303.15	0.8587	887.45	0.27
303.15	0.9298	888.42	0.27
303.15	1	889.35	0.28
308.15	0	867.05	0.24
308.15	0.0685	868.57	0.24
308.15	0.1306	869.92	0.25
308.15	0.2018	871.41	0.25
308.15	0.2738	872.87	0.25
308.15	0.3654	874.65	0.26
308.15	0.4331	875.93	0.26
308.15	0.5072	877.25	0.26
308.15	0.589	878.65	0.27
308.15	0.6522	879.68	0.27
308.15	0.7283	880.87	0.27
308.15	0.7924	881.8	0.28
308.15	0.8587	882.74	0.28
308.15	0.9298	883.69	0.28
308.15	1	884.6	0.29
313.15	0	862.79	0.25
313.15	0.0685	864.26	0.25
313.15	0.1306	865.57	0.26
313.15	0.2018	867.02	0.26
313.15	0.2738	868.44	0.26
313.15	0.3654	870.17	0.27
313.15	0.4331	871.41	0.27
313.15	0.5072	872.7	0.27
313.15	0.589	874.06	0.28
313.15	0.6522	875.06	0.28
313.15	0.7283	876.21	0.28
313.15	0.7924	877.12	0.29
313.15	0.8587	878.03	0.29
313.15	0.9298	878.96	0.29
313.15	1	879.85	0.3
318.15	0	858.53	0.26
318.15	0.0685	859.95	0.26
318.15	0.1306	861.22	0.27
318.15	0.2018	862.63	0.27
318.15	0.2738	864.01	0.27
318.15	0.3654	865.69	0.28
318.15	0.4331	866.89	0.28
318.15	0.5072	868.14	0.28
318.15	0.589	869.47	0.29
318.15	0.6522	870.44	0.29
318.15	0.7283	871.55	0.29
318.15	0.7924	872.44	0.3
318.15	0.8587	873.32	0.3
318.15	0.9298	874.23	0.3
318.15	1	875.1	0.31

System: 1,3-dimethylbenzene + butyl 2-propenoate; phases: Liquid
Fixed: Pressure, kPa = 101
Property: Mass density, kg/m3 (Liquid); method: Pycnometric method
Temperature, K	Mole fraction of butyl 2-propenoate	Mass density, kg/m3	uncertainty
288.15	0	868.59	0.22
288.15	0.0732	871.73	0.22
288.15	0.1432	874.65	0.22
288.15	0.2103	877.37	0.23
288.15	0.2841	880.28	0.23
288.15	0.3605	883.19	0.23
288.15	0.4318	885.82	0.24
288.15	0.5006	888.28	0.24
288.15	0.5778	890.95	0.25
288.15	0.6534	893.46	0.25
288.15	0.7204	895.6	0.25
288.15	0.7935	897.84	0.26
288.15	0.8579	899.73	0.26
288.15	0.9306	901.78	0.27
288.15	1	903.6	0.27
293.15	0	864.31	0.21
293.15	0.0732	867.39	0.21
293.15	0.1432	870.26	0.21
293.15	0.2103	872.94	0.21
293.15	0.2841	875.81	0.22
293.15	0.3605	878.68	0.22
293.15	0.4318	881.28	0.23
293.15	0.5006	883.7	0.23
293.15	0.5778	886.34	0.23
293.15	0.6534	888.81	0.24
293.15	0.7204	890.93	0.24
293.15	0.7935	893.13	0.25
293.15	0.8579	895	0.25
293.15	0.9306	897.03	0.26
293.15	1	898.85	0.26
298.15	0	860.02	0.22
298.15	0.0732	863.05	0.22
298.15	0.1432	865.87	0.22
298.15	0.2103	868.51	0.22
298.15	0.2841	871.34	0.23
298.15	0.3605	874.17	0.23
298.15	0.4318	876.74	0.24
298.15	0.5006	879.12	0.24
298.15	0.5778	881.73	0.24
298.15	0.6534	884.17	0.25
298.15	0.7204	886.26	0.25
298.15	0.7935	888.43	0.26
298.15	0.8579	890.27	0.26
298.15	0.9306	892.28	0.26
298.15	1	894.1	0.27
303.15	0	855.74	0.23
303.15	0.0732	858.71	0.23
303.15	0.1432	861.48	0.23
303.15	0.2103	864.08	0.23
303.15	0.2841	866.87	0.24
303.15	0.3605	869.66	0.24
303.15	0.4318	872.2	0.25
303.15	0.5006	874.55	0.25
303.15	0.5778	877.12	0.25
303.15	0.6534	879.53	0.26
303.15	0.7204	881.59	0.26
303.15	0.7935	883.73	0.27
303.15	0.8579	885.54	0.27
303.15	0.9306	887.53	0.27
303.15	1	889.35	0.28
308.15	0	851.45	0.24
308.15	0.0732	854.37	0.24
308.15	0.1432	857.1	0.24
308.15	0.2103	859.66	0.24
308.15	0.2841	862.41	0.25
308.15	0.3605	865.16	0.25
308.15	0.4318	867.66	0.26
308.15	0.5006	869.98	0.26
308.15	0.5778	872.51	0.26
308.15	0.6534	874.89	0.27
308.15	0.7204	876.92	0.27
308.15	0.7935	879.03	0.28
308.15	0.8579	880.82	0.28
308.15	0.9306	882.79	0.28
308.15	1	884.6	0.29
313.15	0	847.17	0.25
313.15	0.0732	850.04	0.25
313.15	0.1432	852.72	0.25
313.15	0.2103	855.24	0.25
313.15	0.2841	857.95	0.26
313.15	0.3605	860.66	0.26
313.15	0.4318	863.12	0.27
313.15	0.5006	865.41	0.27
313.15	0.5778	867.9	0.27
313.15	0.6534	870.25	0.28
313.15	0.7204	872.25	0.28
313.15	0.7935	874.33	0.28
313.15	0.8579	876.1	0.29
313.15	0.9306	878.05	0.29
313.15	1	879.85	0.3
318.15	0	842.88	0.26
318.15	0.0732	845.71	0.26
318.15	0.1432	848.34	0.26
318.15	0.2103	850.82	0.26
318.15	0.2841	853.49	0.27
318.15	0.3605	856.16	0.27
318.15	0.4318	858.58	0.27
318.15	0.5006	860.84	0.28
318.15	0.5778	863.3	0.28
318.15	0.6534	865.61	0.29
318.15	0.7204	867.58	0.29
318.15	0.7935	869.63	0.29
318.15	0.8579	871.38	0.3
318.15	0.9306	873.31	0.3
318.15	1	875.1	0.31

System: 1,4-dimethylbenzene + butyl 2-propenoate; phases: Liquid
Fixed: Pressure, kPa = 101
Property: Mass density, kg/m3 (Liquid); method: Pycnometric method
Temperature, K	Mole fraction of butyl 2-propenoate	Mass density, kg/m3	uncertainty
288.15	0	865.52	0.22
288.15	0.0712	868.91	0.22
288.15	0.1429	872.25	0.22
288.15	0.213	875.39	0.23
288.15	0.2833	878.45	0.23
288.15	0.3623	881.76	0.23
288.15	0.4313	884.56	0.24
288.15	0.5088	887.58	0.24
288.15	0.5829	890.35	0.25
288.15	0.6542	892.91	0.25
288.15	0.7216	895.22	0.25
288.15	0.7922	897.54	0.26
288.15	0.8586	899.61	0.26
288.15	0.9294	901.67	0.27
288.15	1	903.6	0.27
293.15	0	861.17	0.2
293.15	0.0712	864.5	0.21
293.15	0.1429	867.79	0.21
293.15	0.213	870.89	0.21
293.15	0.2833	873.91	0.22
293.15	0.3623	877.19	0.22
293.15	0.4313	879.95	0.23
293.15	0.5088	882.94	0.23
293.15	0.5829	885.68	0.23
293.15	0.6542	888.21	0.24
293.15	0.7216	890.5	0.24
293.15	0.7922	892.8	0.25
293.15	0.8586	894.85	0.25
293.15	0.9294	896.91	0.26
293.15	1	898.85	0.26
298.15	0	856.82	0.21
298.15	0.0712	860.09	0.22
298.15	0.1429	863.33	0.22
298.15	0.213	866.39	0.22
298.15	0.2833	869.37	0.23
298.15	0.3623	872.62	0.23
298.15	0.4313	875.34	0.23
298.15	0.5088	878.3	0.24
298.15	0.5829	881.01	0.24
298.15	0.6542	883.51	0.25
298.15	0.7216	885.78	0.25
298.15	0.7922	888.06	0.26
298.15	0.8586	890.09	0.26
298.15	0.9294	892.15	0.26
298.15	1	894.1	0.27
303.15	0	852.47	0.22
303.15	0.0712	855.68	0.23
303.15	0.1429	858.87	0.23
303.15	0.213	861.89	0.23
303.15	0.2833	864.84	0.24
303.15	0.3623	868.05	0.24
303.15	0.4313	870.74	0.24
303.15	0.5088	873.66	0.25
303.15	0.5829	876.34	0.25
303.15	0.6542	878.82	0.26
303.15	0.7216	881.06	0.26
303.15	0.7922	883.32	0.27
303.15	0.8586	885.33	0.27
303.15	0.9294	887.39	0.27
303.15	1	889.35	0.28
308.15	0	848.12	0.23
308.15	0.0712	851.28	0.24
308.15	0.1429	854.42	0.24
308.15	0.213	857.39	0.24
308.15	0.2833	860.31	0.25
308.15	0.3623	863.48	0.25
308.15	0.4313	866.14	0.25
308.15	0.5088	869.03	0.26
308.15	0.5829	871.68	0.26
308.15	0.6542	874.13	0.27
308.15	0.7216	876.35	0.27
308.15	0.7922	878.58	0.28
308.15	0.8586	880.58	0.28
308.15	0.9294	882.63	0.28
308.15	1	884.6	0.29
313.15	0	843.77	0.24
313.15	0.0712	846.88	0.25
313.15	0.1429	849.97	0.25
313.15	0.213	852.9	0.25
313.15	0.2833	855.78	0.26
313.15	0.3623	858.91	0.26
313.15	0.4313	861.54	0.26
313.15	0.5088	864.4	0.27
313.15	0.5829	867.02	0.27
313.15	0.6542	869.44	0.28
313.15	0.7216	871.64	0.28
313.15	0.7922	873.85	0.28
313.15	0.8586	875.83	0.29
313.15	0.9294	877.88	0.29
313.15	1	879.85	0.3
318.15	0	839.42	0.25
318.15	0.0712	842.48	0.26
318.15	0.1429	845.52	0.26
318.15	0.213	848.41	0.26
318.15	0.2833	851.25	0.27
318.15	0.3623	854.34	0.27
318.15	0.4313	856.94	0.27
318.15	0.5088	859.77	0.28
318.15	0.5829	862.36	0.28
318.15	0.6542	864.75	0.29
318.15	0.7216	866.93	0.29
318.15	0.7922	869.12	0.29
318.15	0.8586	871.08	0.3
318.15	0.9294	873.13	0.3
318.15	1	875.1	0.31

System: 1,3,5-trimethylbenzene + butyl 2-propenoate; phases: Liquid
Fixed: Pressure, kPa = 101
Property: Mass density, kg/m3 (Liquid); method: Pycnometric method
Temperature, K	Mole fraction of butyl 2-propenoate	Mass density, kg/m3	uncertainty
288.15	0	869.28	0.24
288.15	0.0724	871.63	0.24
288.15	0.1414	873.88	0.25
288.15	0.2135	876.24	0.25
288.15	0.2846	878.6	0.25
288.15	0.3512	880.84	0.25
288.15	0.4223	883.26	0.25
288.15	0.4998	885.94	0.26
288.15	0.5724	888.47	0.26
288.15	0.6578	891.46	0.26
288.15	0.7131	893.41	0.26
288.15	0.7823	895.86	0.27
288.15	0.8563	898.49	0.27
288.15	0.9295	901.09	0.27
288.15	1	903.6	0.27
293.15	0	865.37	0.23
293.15	0.0724	867.64	0.23
293.15	0.1414	869.82	0.23
293.15	0.2135	872.11	0.23
293.15	0.2846	874.42	0.24
293.15	0.3512	876.6	0.24
293.15	0.4223	878.97	0.24
293.15	0.4998	881.58	0.24
293.15	0.5724	884.05	0.25
293.15	0.6578	886.97	0.25
293.15	0.7131	888.87	0.25
293.15	0.7823	891.26	0.25
293.15	0.8563	893.83	0.26
293.15	0.9295	896.38	0.26
293.15	1	898.85	0.26
298.15	0	861.45	0.24
298.15	0.0724	863.65	0.24
298.15	0.1414	865.76	0.24
298.15	0.2135	867.99	0.24
298.15	0.2846	870.24	0.25
298.15	0.3512	872.37	0.25
298.15	0.4223	874.68	0.25
298.15	0.4998	877.22	0.25
298.15	0.5724	879.63	0.26
298.15	0.6578	882.48	0.26
298.15	0.7131	884.33	0.26
298.15	0.7823	886.66	0.26
298.15	0.8563	889.17	0.26
298.15	0.9295	891.67	0.27
298.15	1	894.1	0.27
303.15	0	857.54	0.25
303.15	0.0724	859.66	0.25
303.15	0.1414	861.7	0.25
303.15	0.2135	863.87	0.25
303.15	0.2846	866.06	0.26
303.15	0.3512	868.14	0.26
303.15	0.4223	870.39	0.26
303.15	0.4998	872.87	0.26
303.15	0.5724	875.21	0.27
303.15	0.6578	877.99	0.27
303.15	0.7131	879.8	0.27
303.15	0.7823	882.07	0.27
303.15	0.8563	884.52	0.27
303.15	0.9295	886.96	0.28
303.15	1	889.35	0.28
308.15	0	853.63	0.26
308.15	0.0724	855.67	0.26
308.15	0.1414	857.64	0.26
308.15	0.2135	859.75	0.26
308.15	0.2846	861.88	0.27
308.15	0.3512	863.91	0.27
308.15	0.4223	866.1	0.27
308.15	0.4998	868.52	0.27
308.15	0.5724	870.8	0.27
308.15	0.6578	873.5	0.28
308.15	0.7131	875.27	0.28
308.15	0.7823	877.48	0.28
308.15	0.8563	879.87	0.28
308.15	0.9295	882.26	0.29
308.15	1	884.6	0.29
313.15	0	849.71	0.27
313.15	0.0724	851.68	0.27
313.15	0.1414	853.58	0.27
313.15	0.2135	855.63	0.27
313.15	0.2846	857.71	0.28
313.15	0.3512	859.68	0.28
313.15	0.4223	861.81	0.28
313.15	0.4998	864.17	0.28
313.15	0.5724	866.39	0.28
313.15	0.6578	869.02	0.29
313.15	0.7131	870.74	0.29
313.15	0.7823	872.89	0.29
313.15	0.8563	875.22	0.29
313.15	0.9295	877.56	0.3
313.15	1	879.85	0.3
318.15	0	845.8	0.28
318.15	0.0724	847.69	0.28
318.15	0.1414	849.52	0.28
318.15	0.2135	851.51	0.28
318.15	0.2846	853.54	0.29
318.15	0.3512	855.45	0.29
318.15	0.4223	857.53	0.29
318.15	0.4998	859.82	0.29
318.15	0.5724	861.98	0.29
318.15	0.6578	864.54	0.3
318.15	0.7131	866.21	0.3
318.15	0.7823	868.3	0.3
318.15	0.8563	870.57	0.3
318.15	0.9295	872.86	0.31
318.15	1	875.1	0.31
