Measured thermophysical data. Viscosity of Gaseous Mixtures of HCFC-22 + HCFC-142b at Pressures to 6.3 MPa
Source: Int. J. Thermophys., 2009, 10.1007/s10765-009-0579-1
Compound 1: chlorodifluoromethane, CHClF2, InChI=1S/CHClF2/c2-1(3)4/h1H, purity 99.9%
Compound 2: 1-chloro-1,1-difluoroethane, C2H3ClF2, InChI=1S/C2H3ClF2/c1-2(3,4)5/h1H3, purity 99.9%

System: chlorodifluoromethane + 1-chloro-1,1-difluoroethane; phases: Gas
Property: Viscosity, Pa*s (Gas); method: Oscillating disk viscometry
Mole fraction of chlorodifluoromethane	Temperature, K	Pressure, kPa	Viscosity, Pa*s	uncertainty
0.2615	298.15	101.8	1.109e-05	4.1e-07
0.2615	298.15	205.6	1.104e-05	4.1e-07
0.2615	298.15	299.2	1.102e-05	4.1e-07
0.2615	298.15	357.3	1.103e-05	4.1e-07
0.2615	298.15	406.4	1.1e-05	4.1e-07
0.2615	323.15	101.8	1.206e-05	4.4e-07
0.2615	323.15	102.4	1.207e-05	4.4e-07
0.2615	323.15	200	1.203e-05	4.3e-07
0.2615	323.15	299.4	1.201e-05	4.3e-07
0.2615	323.15	396.6	1.2e-05	4.3e-07
0.2615	323.15	492.9	1.199e-05	4.3e-07
0.2615	323.15	593.3	1.199e-05	4.3e-07
0.2615	323.15	687	1.202e-05	4.3e-07
0.2615	323.15	793.7	1.211e-05	4.4e-07
0.2615	348.15	102.1	1.295e-05	4.6e-07
0.2615	348.15	199	1.294e-05	4.6e-07
0.2615	348.15	296.9	1.293e-05	4.6e-07
0.2615	348.15	446.2	1.294e-05	4.6e-07
0.2615	348.15	590.8	1.297e-05	4.6e-07
0.2615	348.15	736.9	1.297e-05	4.6e-07
0.2615	348.15	887.3	1.301e-05	4.6e-07
0.2615	348.15	1036	1.302e-05	4.6e-07
0.2615	348.15	1182	1.307e-05	4.6e-07
0.2615	348.15	1334	1.312e-05	4.6e-07
0.2615	348.15	1489	1.325e-05	4.6e-07
0.2615	373.15	102.2	1.377e-05	4.7e-07
0.2615	373.15	298.2	1.38e-05	4.8e-07
0.2615	373.15	493.6	1.381e-05	4.8e-07
0.2615	373.15	695.2	1.381e-05	4.8e-07
0.2615	373.15	876.7	1.387e-05	4.8e-07
0.2615	373.15	889.8	1.388e-05	4.8e-07
0.2615	373.15	1085	1.394e-05	4.8e-07
0.2615	373.15	1281	1.403e-05	4.8e-07
0.2615	373.15	1483	1.413e-05	4.8e-07
0.2615	373.15	1689	1.426e-05	4.9e-07
0.2615	373.15	1897	1.439e-05	4.9e-07
0.2615	373.15	2115	1.461e-05	4.9e-07
0.2615	373.15	2299	1.486e-05	5e-07
0.2615	373.15	2467	1.516e-05	5.1e-07
0.2615	398.15	101.6	1.472e-05	5e-07
0.2615	398.15	102	1.47e-05	5e-07
0.2615	398.15	278.9	1.475e-05	5e-07
0.2615	398.15	468	1.477e-05	5e-07
0.2615	398.15	654.1	1.482e-05	5e-07
0.2615	398.15	908.9	1.485e-05	5e-07
0.2615	398.15	1153	1.493e-05	5e-07
0.2615	398.15	1397	1.504e-05	5e-07
0.2615	398.15	1608	1.51e-05	5.1e-07
0.2615	398.15	1821	1.525e-05	5.1e-07
0.2615	398.15	2031	1.542e-05	5.1e-07
0.2615	398.15	2251	1.56e-05	5.2e-07
0.2615	398.15	2442	1.576e-05	5.2e-07
0.2615	398.15	2637	1.598e-05	5.3e-07
0.2615	398.15	2835	1.629e-05	5.3e-07
0.2615	398.15	3101	1.673e-05	5.4e-07
0.2615	398.15	3322	1.724e-05	5.6e-07
0.2615	398.15	3481	1.773e-05	5.7e-07
0.2615	398.15	3698	1.858e-05	5.9e-07
0.2615	398.15	3854	1.953e-05	6.1e-07
0.2615	398.15	3998	2.101e-05	6.4e-07
0.2615	423.15	102.1	1.579e-05	5.2e-07
0.2615	423.15	394	1.581e-05	5.2e-07
0.2615	423.15	686.5	1.588e-05	5.2e-07
0.2615	423.15	978.6	1.594e-05	5.3e-07
0.2615	423.15	1273	1.604e-05	5.3e-07
0.2615	423.15	1569	1.618e-05	5.3e-07
0.2615	423.15	1878	1.632e-05	5.3e-07
0.2615	423.15	2158	1.65e-05	5.4e-07
0.2615	423.15	2436	1.671e-05	5.4e-07
0.2615	423.15	2797	1.703e-05	5.5e-07
0.2615	423.15	3152	1.743e-05	5.6e-07
0.2615	423.15	3440	1.785e-05	5.7e-07
0.2615	423.15	3680	1.822e-05	5.8e-07
0.2615	423.15	3921	1.868e-05	5.9e-07
0.2615	423.15	4227	1.939e-05	6.1e-07
0.2615	423.15	4504	2.023e-05	6.3e-07
0.2615	423.15	4740	2.12e-05	6.5e-07
0.2615	423.15	4956	2.22e-05	6.7e-07
0.2615	423.15	5183	2.361e-05	7e-07
0.2615	423.15	5286	2.439e-05	7.2e-07
0.5169	298.15	101.5	1.164e-05	4.3e-07
0.5169	298.15	177.1	1.163e-05	4.3e-07
0.5169	298.15	248.7	1.16e-05	4.2e-07
0.5169	298.15	323.9	1.159e-05	4.2e-07
0.5169	298.15	391.5	1.158e-05	4.2e-07
0.5169	298.15	453.1	1.157e-05	4.2e-07
0.5169	323.15	103	1.262e-05	4.5e-07
0.5169	323.15	190	1.261e-05	4.5e-07
0.5169	323.15	276.2	1.259e-05	4.5e-07
0.5169	323.15	373.4	1.259e-05	4.5e-07
0.5169	323.15	473.2	1.258e-05	4.5e-07
0.5169	323.15	575.5	1.257e-05	4.5e-07
0.5169	323.15	670.6	1.258e-05	4.5e-07
0.5169	323.15	771	1.259e-05	4.5e-07
0.5169	323.15	867.1	1.26e-05	4.5e-07
0.5169	348.15	101.4	1.354e-05	4.7e-07
0.5169	348.15	198.6	1.355e-05	4.7e-07
0.5169	348.15	345.4	1.355e-05	4.7e-07
0.5169	348.15	490.8	1.355e-05	4.7e-07
0.5169	348.15	637.2	1.354e-05	4.7e-07
0.5169	348.15	781.7	1.358e-05	4.7e-07
0.5169	348.15	930.2	1.365e-05	4.7e-07
0.5169	348.15	1077	1.365e-05	4.7e-07
0.5169	348.15	1262	1.37e-05	4.7e-07
0.5169	348.15	1408	1.377e-05	4.7e-07
0.5169	348.15	1552	1.386e-05	4.8e-07
0.5169	373.15	101.5	1.451e-05	4.9e-07
0.5169	373.15	294.3	1.449e-05	4.9e-07
0.5169	373.15	490	1.452e-05	4.9e-07
0.5169	373.15	686.2	1.454e-05	4.9e-07
0.5169	373.15	879	1.458e-05	4.9e-07
0.5169	373.15	1080	1.464e-05	5e-07
0.5169	373.15	1277	1.476e-05	5e-07
0.5169	373.15	1472	1.48e-05	5e-07
0.5169	373.15	1666	1.486e-05	5e-07
0.5169	373.15	1862	1.502e-05	5e-07
0.5169	373.15	2065	1.509e-05	5.1e-07
0.5169	373.15	2295	1.537e-05	5.1e-07
0.5169	373.15	2448	1.542e-05	5.1e-07
0.5169	398.15	101.8	1.547e-05	5.1e-07
0.5169	398.15	345.7	1.548e-05	5.1e-07
0.5169	398.15	591.5	1.553e-05	5.2e-07
0.5169	398.15	834.7	1.557e-05	5.2e-07
0.5169	398.15	1081	1.562e-05	5.2e-07
0.5169	398.15	1326	1.572e-05	5.2e-07
0.5169	398.15	1569	1.584e-05	5.2e-07
0.5169	398.15	1824	1.596e-05	5.3e-07
0.5169	398.15	2121	1.616e-05	5.3e-07
0.5169	398.15	2376	1.632e-05	5.3e-07
0.5169	398.15	2634	1.655e-05	5.4e-07
0.5169	398.15	2884	1.68e-05	5.5e-07
0.5169	398.15	3195	1.716e-05	5.5e-07
0.5169	398.15	3432	1.752e-05	5.6e-07
0.5169	398.15	3714	1.808e-05	5.8e-07
0.5169	398.15	3961	1.865e-05	5.9e-07
0.5169	398.15	4222	1.952e-05	6.1e-07
0.5169	398.15	4446	2.048e-05	6.3e-07
0.5169	423.15	102.2	1.631e-05	5.3e-07
0.5169	423.15	346.2	1.634e-05	5.3e-07
0.5169	423.15	642	1.639e-05	5.4e-07
0.5169	423.15	935.8	1.646e-05	5.4e-07
0.5169	423.15	1230	1.657e-05	5.4e-07
0.5169	423.15	1537	1.663e-05	5.4e-07
0.5169	423.15	1832	1.677e-05	5.4e-07
0.5169	423.15	2158	1.694e-05	5.5e-07
0.5169	423.15	2444	1.711e-05	5.5e-07
0.5169	423.15	2740	1.736e-05	5.6e-07
0.5169	423.15	3055	1.765e-05	5.7e-07
0.5169	423.15	3389	1.791e-05	5.7e-07
0.5169	423.15	3703	1.83e-05	5.8e-07
0.5169	423.15	3992	1.874e-05	5.9e-07
0.5169	423.15	4325	1.926e-05	6e-07
0.5169	423.15	4634	1.988e-05	6.2e-07
0.5169	423.15	4895	2.048e-05	6.3e-07
0.5169	423.15	5173	2.124e-05	6.5e-07
0.5169	423.15	5380	2.187e-05	6.6e-07
0.5169	423.15	5612	2.295e-05	6.9e-07
0.5169	423.15	5795	2.357e-05	7e-07
0.7502	298.15	101.7	1.219e-05	4.4e-07
0.7502	298.15	198	1.217e-05	4.4e-07
0.7502	298.15	291.6	1.212e-05	4.4e-07
0.7502	298.15	384.8	1.212e-05	4.4e-07
0.7502	298.15	477.3	1.21e-05	4.4e-07
0.7502	298.15	571.3	1.209e-05	4.4e-07
0.7502	323.15	102.2	1.32e-05	4.6e-07
0.7502	323.15	199	1.32e-05	4.6e-07
0.7502	323.15	297.3	1.317e-05	4.6e-07
0.7502	323.15	398.7	1.318e-05	4.6e-07
0.7502	323.15	510	1.32e-05	4.6e-07
0.7502	323.15	618.1	1.32e-05	4.6e-07
0.7502	323.15	724.7	1.318e-05	4.6e-07
0.7502	323.15	828.4	1.32e-05	4.6e-07
0.7502	323.15	937.9	1.322e-05	4.6e-07
0.7502	348.15	101.6	1.427e-05	4.9e-07
0.7502	348.15	200.7	1.423e-05	4.9e-07
0.7502	348.15	344.3	1.422e-05	4.9e-07
0.7502	348.15	490.8	1.424e-05	4.9e-07
0.7502	348.15	638.2	1.423e-05	4.9e-07
0.7502	348.15	782.5	1.425e-05	4.9e-07
0.7502	348.15	925.6	1.428e-05	4.9e-07
0.7502	348.15	1090	1.43e-05	4.9e-07
0.7502	348.15	1240	1.438e-05	4.9e-07
0.7502	348.15	1392	1.443e-05	4.9e-07
0.7502	348.15	1541	1.45e-05	4.9e-07
0.7502	348.15	1683	1.457e-05	4.9e-07
0.7502	373.15	102.1	1.518e-05	5.1e-07
0.7502	373.15	245.8	1.517e-05	5.1e-07
0.7502	373.15	390.1	1.52e-05	5.1e-07
0.7502	373.15	583.4	1.521e-05	5.1e-07
0.7502	373.15	782.8	1.526e-05	5.1e-07
0.7502	373.15	978.5	1.53e-05	5.1e-07
0.7502	373.15	1173	1.535e-05	5.1e-07
0.7502	373.15	1361	1.542e-05	5.1e-07
0.7502	373.15	1565	1.55e-05	5.2e-07
0.7502	373.15	1760	1.559e-05	5.2e-07
0.7502	373.15	1952	1.568e-05	5.2e-07
0.7502	373.15	2190	1.586e-05	5.2e-07
0.7502	373.15	2398	1.602e-05	5.3e-07
0.7502	373.15	2604	1.618e-05	5.3e-07
0.7502	373.15	2789	1.638e-05	5.4e-07
0.7502	373.15	2988	1.665e-05	5.4e-07
0.7502	398.15	100.6	1.605e-05	5.3e-07
0.7502	398.15	404.8	1.605e-05	5.3e-07
0.7502	398.15	779.9	1.612e-05	5.3e-07
0.7502	398.15	1036	1.619e-05	5.3e-07
0.7502	398.15	1374	1.628e-05	5.3e-07
0.7502	398.15	1667	1.642e-05	5.4e-07
0.7502	398.15	2016	1.657e-05	5.4e-07
0.7502	398.15	2376	1.679e-05	5.5e-07
0.7502	398.15	2813	1.711e-05	5.5e-07
0.7502	398.15	3115	1.741e-05	5.6e-07
0.7502	398.15	3403	1.784e-05	5.7e-07
0.7502	398.15	3825	1.827e-05	5.8e-07
0.7502	398.15	4086	1.865e-05	5.9e-07
0.7502	398.15	4343	1.918e-05	6e-07
0.7502	398.15	4642	1.991e-05	6.2e-07
0.7502	398.15	4840	2.05e-05	6.3e-07
0.7502	423.15	101.1	1.682e-05	5.5e-07
0.7502	423.15	390.7	1.687e-05	5.5e-07
0.7502	423.15	685.5	1.697e-05	5.5e-07
0.7502	423.15	1026	1.702e-05	5.5e-07
0.7502	423.15	1368	1.711e-05	5.5e-07
0.7502	423.15	1706	1.724e-05	5.6e-07
0.7502	423.15	2055	1.731e-05	5.6e-07
0.7502	423.15	2415	1.75e-05	5.6e-07
0.7502	423.15	2719	1.769e-05	5.7e-07
0.7502	423.15	3159	1.797e-05	5.7e-07
0.7502	423.15	3481	1.829e-05	5.8e-07
0.7502	423.15	3855	1.863e-05	5.9e-07
0.7502	423.15	4203	1.894e-05	6e-07
0.7502	423.15	4560	1.947e-05	6.1e-07
0.7502	423.15	4897	1.997e-05	6.2e-07
0.7502	423.15	5301	2.057e-05	6.3e-07
0.7502	423.15	5605	2.121e-05	6.5e-07
0.7502	423.15	5936	2.202e-05	6.7e-07
0.7502	423.15	6270	2.299e-05	6.9e-07
0.7502	348.15	1392	1.443e-05	4.9e-07

System: chlorodifluoromethane + 1-chloro-1,1-difluoroethane; phases: Gas
Property: Mass density, kg/m3 (Gas); method: Pycnometric method
Mole fraction of chlorodifluoromethane	Temperature, K	Pressure, kPa	Mass density, kg/m3	uncertainty
0.2615	298.15	101.8	4.07	0.213
0.2615	298.15	205.6	8.45	0.213
0.2615	298.15	299.2	12.59	0.21
0.2615	298.15	357.3	15.25	0.21
0.2615	298.15	406.4	17.6	0.21
0.2615	323.15	101.8	3.732	0.204
0.2615	323.15	102.4	3.755	0.204
0.2615	323.15	200	7.459	0.204
0.2615	323.15	299.4	11.38	0.2
0.2615	323.15	396.6	15.36	0.2
0.2615	323.15	492.9	19.48	0.2
0.2615	323.15	593.3	23.99	0.21
0.2615	323.15	687	28.43	0.21
0.2615	323.15	793.7	33.76	0.21
0.2615	348.15	102.1	3.463	0.208
0.2615	348.15	199	6.847	0.209
0.2615	348.15	296.9	10.36	0.21
0.2615	348.15	446.2	15.92	0.21
0.2615	348.15	590.8	21.56	0.21
0.2615	348.15	736.9	27.57	0.21
0.2615	348.15	887.3	34.14	0.21
0.2615	348.15	1036	40.96	0.21
0.2615	348.15	1182	48.22	0.22
0.2615	348.15	1334	56.48	0.22
0.2615	348.15	1489	65.73	0.22
0.2615	373.15	102.2	3.224	0.226
0.2615	373.15	298.2	9.612	0.227
0.2615	373.15	493.6	16.27	0.23
0.2615	373.15	695.2	23.4	0.23
0.2615	373.15	876.7	30.25	0.24
0.2615	373.15	889.8	30.77	0.24
0.2615	373.15	1085	38.57	0.23
0.2615	373.15	1281	46.94	0.23
0.2615	373.15	1483	56.2	0.24
0.2615	373.15	1689	66.3	0.24
0.2615	373.15	1897	77.72	0.24
0.2615	373.15	2115	91.26	0.25
0.2615	373.15	2299	104.3	0.3
0.2615	373.15	2467	117.9	0.3
0.2615	398.15	101.6	2.997	0.254
0.2615	398.15	102	3.006	0.254
0.2615	398.15	278.9	8.354	0.255
0.2615	398.15	468	14.28	0.26
0.2615	398.15	654.1	20.27	0.26
0.2615	398.15	908.9	28.88	0.26
0.2615	398.15	1153	37.53	0.26
0.2615	398.15	1397	46.73	0.26
0.2615	398.15	1608	55.16	0.26
0.2615	398.15	1821	63.97	0.27
0.2615	398.15	2031	73.54	0.27
0.2615	398.15	2251	84.17	0.27
0.2615	398.15	2442	94.09	0.27
0.2615	398.15	2637	105.1	0.3
0.2615	398.15	2835	117.2	0.3
0.2615	398.15	3101	136	0.3
0.2615	398.15	3322	154.3	0.3
0.2615	398.15	3481	170.2	0.3
0.2615	398.15	3698	196.3	0.3
0.2615	398.15	3854	222.4	0.4
0.2615	398.15	3998	261.2	0.4
0.2615	423.15	102.1	2.829	0.289
0.2615	423.15	394	11.13	0.29
0.2615	423.15	686.5	19.8	0.29
0.2615	423.15	978.6	28.81	0.29
0.2615	423.15	1273	38.54	0.3
0.2615	423.15	1569	48.6	0.3
0.2615	423.15	1878	59.81	0.3
0.2615	423.15	2158	70.63	0.3
0.2615	423.15	2436	81.74	0.31
0.2615	423.15	2797	98.1	0.31
0.2615	423.15	3152	115.5	0.3
0.2615	423.15	3440	131.6	0.3
0.2615	423.15	3680	145.8	0.3
0.2615	423.15	3921	160.9	0.3
0.2615	423.15	4227	184.1	0.4
0.2615	423.15	4504	207.1	0.4
0.2615	423.15	4740	230.5	0.4
0.2615	423.15	4956	254.1	0.4
0.2615	423.15	5183	285.1	0.4
0.2615	423.15	5286	294.5	0.4
0.5169	298.15	101.5	3.896	0.212
0.5169	298.15	177.1	6.906	0.212
0.5169	298.15	248.7	9.867	0.212
0.5169	298.15	323.9	13.12	0.21
0.5169	298.15	391.5	16.21	0.21
0.5169	298.15	453.1	19.06	0.21
0.5169	323.15	103	3.663	0.203
0.5169	323.15	190	6.762	0.203
0.5169	323.15	276.2	10.03	0.2
0.5169	323.15	373.4	13.8	0.2
0.5169	323.15	473.2	17.99	0.2
0.5169	323.15	575.5	22.07	0.2
0.5169	323.15	670.6	26.3	0.2
0.5169	323.15	771	30.74	0.21
0.5169	323.15	867.1	35.23	0.21
0.5169	348.15	101.4	3.305	0.208
0.5169	348.15	198.6	6.548	0.208
0.5169	348.15	345.4	11.61	0.21
0.5169	348.15	490.8	16.98	0.21
0.5169	348.15	637.2	22.25	0.21
0.5169	348.15	781.7	27.87	0.21
0.5169	348.15	930.2	33.93	0.21
0.5169	348.15	1077	40.31	0.21
0.5169	348.15	1262	48.67	0.21
0.5169	348.15	1408	56	0.22
0.5169	348.15	1552	63.84	0.22
0.5169	373.15	101.5	3.079	0.226
0.5169	373.15	294.3	9.101	0.227
0.5169	373.15	490	15.46	0.23
0.5169	373.15	686.2	22.09	0.23
0.5169	373.15	879	28.79	0.23
0.5169	373.15	1080	36.34	0.23
0.5169	373.15	1277	43.98	0.23
0.5169	373.15	1472	51.98	0.23
0.5169	373.15	1666	60.38	0.24
0.5169	373.15	1862	69.61	0.24
0.5169	373.15	2065	80.02	0.24
0.5169	373.15	2295	92.76	0.24
0.5169	373.15	2448	102	0.3
0.5169	398.15	101.8	2.886	0.254
0.5169	398.15	345.7	9.975	0.255
0.5169	398.15	591.5	17.39	0.26
0.5169	398.15	834.7	25.01	0.26
0.5169	398.15	1081	33.05	0.26
0.5169	398.15	1326	41.4	0.26
0.5169	398.15	1569	50.2	0.26
0.5169	398.15	1824	59.84	0.27
0.5169	398.15	2121	71.87	0.27
0.5169	398.15	2376	82.87	0.27
0.5169	398.15	2634	94.96	0.27
0.5169	398.15	2884	107.4	0.3
0.5169	398.15	3195	124.9	0.3
0.5169	398.15	3432	139.6	0.3
0.5169	398.15	3714	159.3	0.3
0.5169	398.15	3961	179.5	0.3
0.5169	398.15	4222	204.9	0.3
0.5169	398.15	4446	231.6	0.3
0.5169	423.15	102.2	2.723	0.289
0.5169	423.15	346.2	9.354	0.29
0.5169	423.15	642	17.67	0.29
0.5169	423.15	935.8	26.24	0.29
0.5169	423.15	1230	35.16	0.3
0.5169	423.15	1537	44.54	0.3
0.5169	423.15	1832	54.69	0.3
0.5169	423.15	2158	65.98	0.3
0.5169	423.15	2444	76.64	0.31
0.5169	423.15	2740	88.1	0.31
0.5169	423.15	3055	101.2	0.3
0.5169	423.15	3389	116.1	0.3
0.5169	423.15	3703	131.2	0.3
0.5169	423.15	3992	146.2	0.3
0.5169	423.15	4325	165.2	0.3
0.5169	423.15	4634	184.7	0.3
0.5169	423.15	4895	203.4	0.4
0.5169	423.15	5173	223.6	0.4
0.5169	423.15	5380	240.7	0.4
0.5169	423.15	5612	261.9	0.4
0.5169	423.15	5795	280.3	0.4
0.7502	298.15	101.7	3.754	0.212
0.7502	298.15	198	7.44	0.212
0.7502	298.15	291.6	11.16	0.21
0.7502	298.15	384.8	15.02	0.21
0.7502	298.15	477.3	18.96	0.21
0.7502	298.15	571.3	23.23	0.21
0.7502	323.15	102.2	3.468	0.203
0.7502	323.15	199	6.842	0.203
0.7502	323.15	297.3	10.36	0.2
0.7502	323.15	398.7	14.09	0.2
0.7502	323.15	510	18.34	0.2
0.7502	323.15	618.1	22.66	0.2
0.7502	323.15	724.7	26.96	0.2
0.7502	323.15	828.4	31.41	0.2
0.7502	323.15	937.9	36.25	0.2
0.7502	348.15	101.6	3.189	0.208
0.7502	348.15	200.7	6.368	0.208
0.7502	348.15	344.3	11.09	0.21
0.7502	348.15	490.8	16.07	0.21
0.7502	348.15	638.2	21.43	0.21
0.7502	348.15	782.5	26.5	0.21
0.7502	348.15	925.6	31.97	0.21
0.7502	348.15	1090	38.36	0.21
0.7502	348.15	1240	44.53	0.21
0.7502	348.15	1392	51.21	0.21
0.7502	348.15	1541	58.1	0.21
0.7502	348.15	1683	64.7	0.22
0.7502	373.15	102.1	2.984	0.226
0.7502	373.15	245.8	7.266	0.226
0.7502	373.15	390.1	11.68	0.23
0.7502	373.15	583.4	17.74	0.23
0.7502	373.15	782.8	24.22	0.23
0.7502	373.15	978.5	30.82	0.23
0.7502	373.15	1173	37.6	0.23
0.7502	373.15	1361	44.52	0.23
0.7502	373.15	1565	52.28	0.23
0.7502	373.15	1760	60.2	0.24
0.7502	373.15	1952	68.25	0.24
0.7502	373.15	2190	79.1	0.24
0.7502	373.15	2398	89.07	0.24
0.7502	373.15	2604	99.88	0.24
0.7502	373.15	2789	110.3	0.3
0.7502	373.15	2988	121.8	0.3
0.7502	398.15	100.6	2.753	0.253
0.7502	398.15	404.8	11.29	0.26
0.7502	398.15	779.9	22.29	0.26
0.7502	398.15	1036	30.15	0.26
0.7502	398.15	1374	40.98	0.26
0.7502	398.15	1667	50.88	0.26
0.7502	398.15	2016	63.22	0.27
0.7502	398.15	2376	77.16	0.27
0.7502	398.15	2813	95.48	0.27
0.7502	398.15	3115	109.3	0.3
0.7502	398.15	3403	128.5	0.3
0.7502	398.15	3825	146.7	0.3
0.7502	398.15	4086	162.7	0.3
0.7502	398.15	4343	180.2	0.3
0.7502	398.15	4642	203.6	0.3
0.7502	398.15	4840	218.9	0.3
0.7502	423.15	101.1	2.597	0.288
0.7502	423.15	390.7	10.18	0.29
0.7502	423.15	685.5	18.14	0.29
0.7502	423.15	1026	27.65	0.29
0.7502	423.15	1368	37.56	0.3
0.7502	423.15	1706	47.76	0.3
0.7502	423.15	2055	58.73	0.3
0.7502	423.15	2415	70.79	0.3
0.7502	423.15	2719	81.34	0.31
0.7502	423.15	3159	97.7	0.31
0.7502	423.15	3481	110.3	0.3
0.7502	423.15	3855	126.4	0.3
0.7502	423.15	4203	142	0.3
0.7502	423.15	4560	159.4	0.3
0.7502	423.15	4897	176.4	0.3
0.7502	423.15	5301	200.1	0.3
0.7502	423.15	5605	219.3	0.4
0.7502	423.15	5936	242.2	0.4
0.7502	423.15	6270	267.2	0.4
0.7502	348.15	1392	51.21	0.21
