Measured thermophysical data. Densities, Viscosities, Speeds of Sound, and Refractive Indices of Binary Mixtures of 2-Octanol with Chlorobenzenes
Source: Int. J. Thermophys., 2011, 10.1007/s10765-011-1087-7
Compound 1: 1,3-dichlorobenzene, C6H4Cl2, InChI=1S/C6H4Cl2/c7-5-2-1-3-6(8)4-5/h1-4H, purity 99.5%
Compound 2: 2-octanol, C8H18O, InChI=1S/C8H18O/c1-3-4-5-6-7-8(2)9/h8-9H,3-7H2,1-2H3, purity 99.5%
Compound 3: 1,2-dichlorobenzene, C6H4Cl2, InChI=1S/C6H4Cl2/c7-5-3-1-2-4-6(5)8/h1-4H, purity 99.5%
Compound 4: 1,2,4-trichlorobenzene, C6H3Cl3, InChI=1S/C6H3Cl3/c7-4-1-2-5(8)6(9)3-4/h1-3H, purity 99.6%

System: 1,3-dichlorobenzene; phases: Liquid
Fixed: Pressure, kPa = 101.325
Property: Refractive index (Na D-line) (Liquid); method: ABBE:UFactor:4
Temperature, K	Refractive index (Na D-line)	uncertainty
298.15	1.544	0.0012
303.15	1.541	0.0012
308.15	1.538	0.0012

System: 1,3-dichlorobenzene; phases: Liquid
Fixed: Pressure, kPa = 101
Property: Viscosity, Pa*s (Liquid); method: Capillary tube (Ostwald; Ubbelohde) method
Temperature, K	Viscosity, Pa*s	uncertainty
298.15	0.001014	9e-06
303.15	0.000946	8e-06
308.15	0.000891	8e-06

System: 1,3-dichlorobenzene; phases: Liquid
Fixed: Pressure, kPa = 101
Property: Speed of sound, m/s (Liquid); method: Pulse-echo method
Temperature, K	Speed of sound, m/s	uncertainty
298.15	1255	1.3
303.15	1238.4	1.3
308.15	1221.9	1.3

System: 1,3-dichlorobenzene; phases: Liquid
Fixed: Pressure, kPa = 101
Property: Mass density, kg/m3 (Liquid); method: VIBTUB:UFactor:4
Temperature, K	Mass density, kg/m3	uncertainty
298.15	1283.45	0.84
303.15	1277.79	0.82
308.15	1272.1	0.81

System: 2-octanol; phases: Liquid
Fixed: Pressure, kPa = 101.325
Property: Refractive index (Na D-line) (Liquid); method: ABBE:UFactor:4
Temperature, K	Refractive index (Na D-line)	uncertainty
298.15	1.4226	0.0012
303.15	1.4206	0.0012
308.15	1.4185	0.0012

System: 2-octanol; phases: Liquid
Fixed: Pressure, kPa = 101
Property: Viscosity, Pa*s (Liquid); method: Capillary tube (Ostwald; Ubbelohde) method
Temperature, K	Viscosity, Pa*s	uncertainty
298.15	0.006566	7.2e-05
303.15	0.005178	6.1e-05
308.15	0.004162	5.1e-05

System: 2-octanol; phases: Liquid
Fixed: Pressure, kPa = 101
Property: Speed of sound, m/s (Liquid); method: Pulse-echo method
Temperature, K	Speed of sound, m/s	uncertainty
298.15	1307	1
303.15	1289	1
308.15	1271	1

System: 2-octanol; phases: Liquid
Fixed: Pressure, kPa = 101
Property: Mass density, kg/m3 (Liquid); method: VIBTUB:UFactor:4
Temperature, K	Mass density, kg/m3	uncertainty
298.15	816.39	0.57
303.15	812.58	0.58
308.15	808.74	0.59

System: 1,2-dichlorobenzene; phases: Liquid
Fixed: Pressure, kPa = 101.325
Property: Refractive index (Na D-line) (Liquid); method: ABBE:UFactor:4
Temperature, K	Refractive index (Na D-line)	uncertainty
298.15	1.546	0.0012
303.15	1.544	0.0012
308.15	1.541	0.0012

System: 1,2-dichlorobenzene; phases: Liquid
Fixed: Pressure, kPa = 101
Property: Viscosity, Pa*s (Liquid); method: Capillary tube (Ostwald; Ubbelohde) method
Temperature, K	Viscosity, Pa*s	uncertainty
298.15	0.001314	1e-05
303.15	0.001235	1e-05
308.15	0.001144	9e-06

System: 1,2-dichlorobenzene; phases: Liquid
Fixed: Pressure, kPa = 101
Property: Speed of sound, m/s (Liquid); method: Pulse-echo method
Temperature, K	Speed of sound, m/s	uncertainty
298.15	1281.6	1.3
303.15	1265.2	1.3
308.15	1245.9	1.3

System: 1,2-dichlorobenzene; phases: Liquid
Fixed: Pressure, kPa = 101
Property: Mass density, kg/m3 (Liquid); method: VIBTUB:UFactor:4
Temperature, K	Mass density, kg/m3	uncertainty
298.15	1300.3	0.87
303.15	1294.72	0.86
308.15	1289.13	0.85

System: 1,2,4-trichlorobenzene; phases: Liquid
Fixed: Pressure, kPa = 101.325
Property: Refractive index (Na D-line) (Liquid); method: ABBE:UFactor:4
Temperature, K	Refractive index (Na D-line)	uncertainty
298.15	1.548	0.0012
303.15	1.546	0.0012
308.15	1.543	0.0012

System: 1,2,4-trichlorobenzene; phases: Liquid
Fixed: Pressure, kPa = 101
Property: Viscosity, Pa*s (Liquid); method: Capillary tube (Ostwald; Ubbelohde) method
Temperature, K	Viscosity, Pa*s	uncertainty
298.15	0.001926	1.2e-05
303.15	0.00176	1.2e-05
308.15	0.001617	1.1e-05

System: 1,2,4-trichlorobenzene; phases: Liquid
Fixed: Pressure, kPa = 101
Property: Speed of sound, m/s (Liquid); method: Pulse-echo method
Temperature, K	Speed of sound, m/s	uncertainty
298.15	1272	1.2
303.15	1256.4	1.2
308.15	1240.9	1.2

System: 1,2,4-trichlorobenzene; phases: Liquid
Fixed: Pressure, kPa = 101
Property: Mass density, kg/m3 (Liquid); method: VIBTUB:UFactor:4
Temperature, K	Mass density, kg/m3	uncertainty
298.15	1448.41	1.15
303.15	1442.43	1.14
308.15	1436.45	1.13

System: 1,2-dichlorobenzene + 2-octanol; phases: Liquid
Fixed: Pressure, kPa = 101
Property: Viscosity, Pa*s (Liquid); method: CAPTUB:UFactor:6
Temperature, K	Mole fraction of 1,2-dichlorobenzene	Viscosity, Pa*s	uncertainty
298.15	0.0721	0.005353	0.000171
298.15	0.1124	0.004742	0.000155
298.15	0.1868	0.003839	0.000127
298.15	0.2615	0.003163	0.000106
298.15	0.3223	0.002721	9.2e-05
298.15	0.3758	0.002414	8.2e-05
298.15	0.4495	0.002086	7.2e-05
298.15	0.512	0.001873	6.5e-05
298.15	0.5923	0.001668	5.9e-05
298.15	0.6557	0.001551	5.5e-05
298.15	0.7312	0.001406	5e-05
298.15	0.797	0.001293	4.7e-05
298.15	0.8672	0.001283	4.6e-05
298.15	0.9481	0.001308	4.7e-05
298.15	1	0.001314	4.7e-05
303.15	0.0721	0.004223	0.000139
303.15	0.1124	0.003749	0.000124
303.15	0.1868	0.003115	0.000105
303.15	0.2615	0.002648	9e-05
303.15	0.3223	0.002342	8e-05
303.15	0.3758	0.00215	7.4e-05
303.15	0.4495	0.001942	6.7e-05
303.15	0.512	0.001772	6.2e-05
303.15	0.5923	0.001613	5.7e-05
303.15	0.6557	0.001473	5.2e-05
303.15	0.7312	0.00134	4.8e-05
303.15	0.797	0.001253	4.5e-05
303.15	0.8672	0.001201	4.4e-05
303.15	0.9481	0.001223	4.4e-05
303.15	1	0.001235	4.5e-05
308.15	0.0721	0.003524	0.000117
308.15	0.1124	0.003227	0.000108
308.15	0.1868	0.002763	9.3e-05
308.15	0.2615	0.00238	8.1e-05
308.15	0.3223	0.002121	7.3e-05
308.15	0.3758	0.001933	6.7e-05
308.15	0.4495	0.0017	6e-05
308.15	0.512	0.001532	5.4e-05
308.15	0.5923	0.001362	4.9e-05
308.15	0.6557	0.001243	4.5e-05
308.15	0.7312	0.001157	4.2e-05
308.15	0.797	0.001132	4.1e-05
308.15	0.8672	0.001133	4.1e-05
308.15	0.9481	0.00114	4.2e-05
308.15	1	0.001144	4.2e-05

System: 1,2-dichlorobenzene + 2-octanol; phases: Liquid
Fixed: Pressure, kPa = 101
Property: Refractive index (Na D-line) (Liquid); method: ABBE:UFactor:4
Temperature, K	Mole fraction of 1,2-dichlorobenzene	Refractive index (Na D-line)	uncertainty
298.15	0.0721	1.4308	0.0012
298.15	0.1124	1.4352	0.0012
298.15	0.1868	1.443	0.0012
298.15	0.2615	1.4507	0.0012
298.15	0.3223	1.4569	0.0012
298.15	0.3758	1.4624	0.0012
298.15	0.4495	1.4698	0.0012
298.15	0.512	1.4763	0.0012
298.15	0.5923	1.4848	0.0012
298.15	0.6557	1.492	0.0012
298.15	0.7312	1.5014	0.0012
298.15	0.797	1.5103	0.0012
298.15	0.8672	1.521	0.0012
298.15	0.9481	1.5353	0.0012
298.15	1	1.546	0.0012
303.15	0.0721	1.4293	0.0012
303.15	0.1124	1.4336	0.0012
303.15	0.1868	1.4416	0.0012
303.15	0.2615	1.4492	0.0012
303.15	0.3223	1.4552	0.0012
303.15	0.3758	1.4604	0.0012
303.15	0.4495	1.4678	0.0012
303.15	0.512	1.4741	0.0012
303.15	0.5923	1.4828	0.0012
303.15	0.6557	1.4902	0.0012
303.15	0.7312	1.4997	0.0012
303.15	0.797	1.509	0.0012
303.15	0.8672	1.52	0.0012
303.15	0.9481	1.5342	0.0012
303.15	1	1.544	0.0012
308.15	0.0721	1.4274	0.0012
308.15	0.1124	1.4319	0.0012
308.15	0.1868	1.4399	0.0012
308.15	0.2615	1.4476	0.0012
308.15	0.3223	1.4534	0.0012
308.15	0.3758	1.4587	0.0012
308.15	0.4495	1.4658	0.0012
308.15	0.512	1.4718	0.0012
308.15	0.5923	1.48	0.0012
308.15	0.6557	1.4873	0.0012
308.15	0.7312	1.4967	0.0012
308.15	0.797	1.5059	0.0012
308.15	0.8672	1.5168	0.0012
308.15	0.9481	1.531	0.0012
308.15	1	1.541	0.0012

System: 1,2-dichlorobenzene + 2-octanol; phases: Liquid
Fixed: Pressure, kPa = 101
Property: Speed of sound, m/s (Liquid); method: Pulse-echo method
Temperature, K	Mole fraction of 1,2-dichlorobenzene	Speed of sound, m/s	uncertainty
298.15	0.0721	1302	1.3
298.15	0.1124	1299.7	1.3
298.15	0.1868	1295.1	1.3
298.15	0.2615	1291	1.3
298.15	0.3223	1287.8	1.3
298.15	0.3758	1285.1	1.3
298.15	0.4495	1281.8	1.3
298.15	0.512	1279.1	1.3
298.15	0.5923	1276.1	1.3
298.15	0.6557	1274.5	1.3
298.15	0.7312	1273.2	1.3
298.15	0.797	1273	1.3
298.15	0.8672	1274.4	1.3
298.15	0.9481	1277.6	1.3
298.15	1	1281.6	1.3
303.15	0.0721	1283.9	1.3
303.15	0.1124	1281.6	1.3
303.15	0.1868	1277.6	1.3
303.15	0.2615	1273.5	1.3
303.15	0.3223	1270.5	1.3
303.15	0.3758	1267.9	1.3
303.15	0.4495	1264.9	1.3
303.15	0.512	1262.2	1.3
303.15	0.5923	1259.6	1.3
303.15	0.6557	1258	1.3
303.15	0.7312	1257	1.3
303.15	0.797	1256.7	1.3
303.15	0.8672	1257.9	1.3
303.15	0.9481	1261.6	1.3
303.15	1	1265.2	1.3
308.15	0.0721	1266.6	1.3
308.15	0.1124	1264	1.3
308.15	0.1868	1260.1	1.3
308.15	0.2615	1256.2	1.3
308.15	0.3223	1253.3	1.3
308.15	0.3758	1250.8	1.3
308.15	0.4495	1247.6	1.3
308.15	0.512	1245.4	1.3
308.15	0.5923	1242.9	1.3
308.15	0.6557	1241.5	1.3
308.15	0.7312	1240.5	1.3
308.15	0.797	1240.4	1.3
308.15	0.8672	1241.5	1.3
308.15	0.9481	1243.9	1.3
308.15	1	1245.9	1.3

System: 1,2-dichlorobenzene + 2-octanol; phases: Liquid
Fixed: Pressure, kPa = 101
Property: Mass density, kg/m3 (Liquid); method: VIBTUB:UFactor:4
Temperature, K	Mole fraction of 1,2-dichlorobenzene	Mass density, kg/m3	uncertainty
298.15	0.0721	841.72	0.53
298.15	0.1124	856.33	0.5
298.15	0.1868	884.26	0.45
298.15	0.2615	913.56	0.4
298.15	0.3223	938.42	0.35
298.15	0.3758	961.09	0.31
298.15	0.4495	993.6	0.25
298.15	0.512	1022.45	0.29
298.15	0.5923	1061.35	0.37
298.15	0.6557	1093.66	0.44
298.15	0.7312	1134.18	0.52
298.15	0.797	1171.44	0.6
298.15	0.8672	1213.47	0.7
298.15	0.9481	1265.11	0.81
298.15	1	1300.3	0.87
303.15	0.0721	837.79	0.54
303.15	0.1124	852.34	0.51
303.15	0.1868	880.15	0.46
303.15	0.2615	909.35	0.4
303.15	0.3223	934.11	0.36
303.15	0.3758	956.68	0.32
303.15	0.4495	989.05	0.26
303.15	0.512	1017.76	0.28
303.15	0.5923	1056.48	0.36
303.15	0.6557	1088.63	0.43
303.15	0.7312	1128.95	0.51
303.15	0.797	1166.05	0.59
303.15	0.8672	1207.93	0.68
303.15	0.9481	1259.5	0.8
303.15	1	1294.72	0.86
308.15	0.0721	833.8	0.54
308.15	0.1124	848.27	0.52
308.15	0.1868	875.95	0.47
308.15	0.2615	905.03	0.41
308.15	0.3223	929.69	0.37
308.15	0.3758	952.17	0.33
308.15	0.4495	984.42	0.27
308.15	0.512	1013.02	0.27
308.15	0.5923	1051.57	0.35
308.15	0.6557	1083.59	0.42
308.15	0.7312	1123.75	0.5
308.15	0.797	1160.72	0.58
308.15	0.8672	1202.46	0.67
308.15	0.9481	1253.92	0.78
308.15	1	1289.13	0.85

System: 2-octanol + 1,3-dichlorobenzene; phases: Liquid
Fixed: Pressure, kPa = 101
Property: Viscosity, Pa*s (Liquid); method: CAPTUB:UFactor:12
Temperature, K	Mole fraction of 1,3-dichlorobenzene	Viscosity, Pa*s	uncertainty
298.15	0	0.006566	0.000398
298.15	0.0694	0.005146	0.000332
298.15	0.1166	0.00443	0.00029
298.15	0.1823	0.0037	0.000245
298.15	0.2395	0.003231	0.000216
298.15	0.3143	0.002754	0.000186
298.15	0.379	0.002429	0.000165
298.15	0.4488	0.002138	0.000147
298.15	0.5084	0.001934	0.000134
298.15	0.582	0.001715	0.00012
298.15	0.6659	0.001505	0.000106
298.15	0.7208	0.001394	9.9e-05
298.15	0.7847	0.001279	9.2e-05
298.15	0.8663	0.001151	8.4e-05
298.15	0.9434	0.001065	7.8e-05
298.15	1	0.001014	7.5e-05
303.15	0	0.005178	0.000334
303.15	0.0694	0.004351	0.000286
303.15	0.1166	0.003821	0.000253
303.15	0.1823	0.003246	0.000217
303.15	0.2395	0.002847	0.000192
303.15	0.3143	0.002412	0.000164
303.15	0.379	0.002113	0.000145
303.15	0.4488	0.001857	0.000129
303.15	0.5084	0.001679	0.000118
303.15	0.582	0.00151	0.000107
303.15	0.6659	0.001378	9.8e-05
303.15	0.7208	0.001302	9.3e-05
303.15	0.7847	0.001226	8.9e-05
303.15	0.8663	0.00114	8.3e-05
303.15	0.9434	0.001042	7.7e-05
303.15	1	0.000946	7.1e-05
308.15	0	0.004162	0.000274
308.15	0.0694	0.003517	0.000234
308.15	0.1166	0.00317	0.000212
308.15	0.1823	0.002759	0.000186
308.15	0.2395	0.002463	0.000167
308.15	0.3143	0.002119	0.000146
308.15	0.379	0.001892	0.000131
308.15	0.4488	0.001673	0.000117
308.15	0.5084	0.001512	0.000107
308.15	0.582	0.001358	9.7e-05
308.15	0.6659	0.001207	8.7e-05
308.15	0.7208	0.001132	8.3e-05
308.15	0.7847	0.00105	7.7e-05
308.15	0.8663	0.000956	7.1e-05
308.15	0.9434	0.000898	6.7e-05
308.15	1	0.000891	6.7e-05

System: 2-octanol + 1,3-dichlorobenzene; phases: Liquid
Fixed: Pressure, kPa = 101
Property: Refractive index (Na D-line) (Liquid); method: ABBE:UFactor:4
Temperature, K	Mole fraction of 1,3-dichlorobenzene	Refractive index (Na D-line)	uncertainty
298.15	0.0694	1.4312	0.0012
298.15	0.1166	1.4366	0.0012
298.15	0.1823	1.4436	0.0012
298.15	0.2395	1.4494	0.0012
298.15	0.3143	1.4567	0.0012
298.15	0.379	1.4631	0.0012
298.15	0.4488	1.4698	0.0012
298.15	0.5084	1.4758	0.0012
298.15	0.582	1.4838	0.0012
298.15	0.6659	1.4939	0.0012
298.15	0.7208	1.5009	0.0012
298.15	0.7847	1.5099	0.0012
298.15	0.8663	1.5224	0.0012
298.15	0.9434	1.5349	0.0012
298.15	1	1.544	0.0012
303.15	0.0694	1.4293	0.0012
303.15	0.1166	1.4348	0.0012
303.15	0.1823	1.4418	0.0012
303.15	0.2395	1.4475	0.0012
303.15	0.3143	1.4546	0.0012
303.15	0.379	1.4608	0.0012
303.15	0.4488	1.4677	0.0012
303.15	0.5084	1.4738	0.0012
303.15	0.582	1.4819	0.0012
303.15	0.6659	1.4921	0.0012
303.15	0.7208	1.4994	0.0012
303.15	0.7847	1.5084	0.0012
303.15	0.8663	1.5209	0.0012
303.15	0.9434	1.5327	0.0012
303.15	1	1.541	0.0012
308.15	0.0694	1.4273	0.0012
308.15	0.1166	1.4327	0.0012
308.15	0.1823	1.4397	0.0012
308.15	0.2395	1.4455	0.0012
308.15	0.3143	1.4527	0.0012
308.15	0.379	1.4589	0.0012
308.15	0.4488	1.4658	0.0012
308.15	0.5084	1.4718	0.0012
308.15	0.582	1.4798	0.0012
308.15	0.6659	1.4898	0.0012
308.15	0.7208	1.4969	0.0012
308.15	0.7847	1.5057	0.0012
308.15	0.8663	1.518	0.0012
308.15	0.9434	1.5298	0.0012
308.15	1	1.538	0.0012

System: 2-octanol + 1,3-dichlorobenzene; phases: Liquid
Fixed: Pressure, kPa = 101
Property: Speed of sound, m/s (Liquid); method: Pulse-echo method
Temperature, K	Mole fraction of 1,3-dichlorobenzene	Speed of sound, m/s	uncertainty
298.15	0.0694	1300.1	1.3
298.15	0.1166	1295.8	1.3
298.15	0.1823	1290	1.3
298.15	0.2395	1285.1	1.3
298.15	0.3143	1278.7	1.3
298.15	0.379	1273.3	1.3
298.15	0.4488	1268	1.3
298.15	0.5084	1263.7	1.3
298.15	0.582	1258.9	1.3
298.15	0.6659	1254.6	1.3
298.15	0.7208	1252.4	1.3
298.15	0.7847	1250.7	1.3
298.15	0.8663	1250.4	1.3
298.15	0.9434	1251.8	1.3
298.15	1	1255	1.3
303.15	0.0694	1282.4	1.3
303.15	0.1166	1278.1	1.3
303.15	0.1823	1272.3	1.3
303.15	0.2395	1267.5	1.3
303.15	0.3143	1261.2	1.3
303.15	0.379	1256.1	1.3
303.15	0.4488	1251	1.3
303.15	0.5084	1246.9	1.3
303.15	0.582	1242.3	1.3
303.15	0.6659	1238.3	1.3
303.15	0.7208	1236.2	1.3
303.15	0.7847	1234.6	1.3
303.15	0.8663	1234.2	1.3
303.15	0.9434	1235.6	1.3
303.15	1	1238.4	1.3
308.15	0.0694	1264.6	1.3
308.15	0.1166	1260.1	1.3
308.15	0.1823	1254.2	1.3
308.15	0.2395	1249.6	1.3
308.15	0.3143	1243.5	1.3
308.15	0.379	1238.9	1.3
308.15	0.4488	1233.9	1.3
308.15	0.5084	1230.2	1.3
308.15	0.582	1226	1.3
308.15	0.6659	1221.9	1.3
308.15	0.7208	1219.4	1.3
308.15	0.7847	1217.9	1.3
308.15	0.8663	1217.3	1.3
308.15	0.9434	1219.3	1.3
308.15	1	1221.9	1.3

System: 2-octanol + 1,3-dichlorobenzene; phases: Liquid
Fixed: Pressure, kPa = 101
Property: Mass density, kg/m3 (Liquid); method: VIBTUB:UFactor:4
Temperature, K	Mole fraction of 1,3-dichlorobenzene	Mass density, kg/m3	uncertainty
298.15	0.0694	840.61	0.53
298.15	0.1166	857.54	0.5
298.15	0.1823	881.65	0.45
298.15	0.2395	903.41	0.41
298.15	0.3143	932.89	0.36
298.15	0.379	959.33	0.31
298.15	0.4488	988.41	0.26
298.15	0.5084	1014.16	0.27
298.15	0.582	1047.42	0.34
298.15	0.6659	1086.85	0.42
298.15	0.7208	1114.21	0.48
298.15	0.7847	1147.67	0.55
298.15	0.8663	1194.04	0.65
298.15	0.9434	1243.52	0.76
298.15	1	1283.45	0.84
303.15	0.0694	836.24	0.54
303.15	0.1166	852.87	0.51
303.15	0.1823	876.71	0.46
303.15	0.2395	898.21	0.42
303.15	0.3143	927.45	0.37
303.15	0.379	953.45	0.32
303.15	0.4488	982.39	0.27
303.15	0.5084	1007.74	0.26
303.15	0.582	1040.69	0.33
303.15	0.6659	1079.96	0.41
303.15	0.7208	1107.42	0.47
303.15	0.7847	1141.2	0.54
303.15	0.8663	1187.75	0.64
303.15	0.9434	1236.9	0.75
303.15	1	1277.79	0.82
308.15	0.0694	832.14	0.55
308.15	0.1166	848.59	0.52
308.15	0.1823	871.91	0.47
308.15	0.2395	892.9	0.43
308.15	0.3143	920.82	0.38
308.15	0.379	945.97	0.34
308.15	0.4488	974.25	0.29
308.15	0.5084	999.57	0.24
308.15	0.582	1032.22	0.31
308.15	0.6659	1071.96	0.39
308.15	0.7208	1099.76	0.45
308.15	0.7847	1134.17	0.53
308.15	0.8663	1181.99	0.63
308.15	0.9434	1231.4	0.74
308.15	1	1272.1	0.81

System: 1,2,4-trichlorobenzene + 2-octanol; phases: Liquid
Fixed: Pressure, kPa = 101
Property: Viscosity, Pa*s (Liquid); method: CAPTUB:UFactor:6
Temperature, K	Mole fraction of 1,2,4-trichlorobenzene	Viscosity, Pa*s	uncertainty
298.15	0.0762	0.005912	0.000184
298.15	0.1303	0.005452	0.000174
298.15	0.2045	0.004912	0.00016
298.15	0.2713	0.004455	0.000146
298.15	0.3461	0.003981	0.000132
298.15	0.4173	0.003575	0.000119
298.15	0.4857	0.003223	0.000108
298.15	0.5454	0.002955	9.9e-05
298.15	0.6115	0.002699	9.1e-05
298.15	0.6798	0.002462	8.4e-05
298.15	0.7466	0.002281	7.8e-05
298.15	0.8183	0.002118	7.3e-05
298.15	0.8713	0.002035	7e-05
298.15	0.9361	0.001945	6.7e-05
298.15	1	0.001926	6.7e-05
303.15	0.0762	0.00479	0.000157
303.15	0.1303	0.004507	0.000148
303.15	0.2045	0.004124	0.000136
303.15	0.2713	0.003783	0.000125
303.15	0.3461	0.003433	0.000114
303.15	0.4173	0.00312	0.000105
303.15	0.4857	0.002849	9.6e-05
303.15	0.5454	0.002632	8.9e-05
303.15	0.6115	0.002405	8.2e-05
303.15	0.6798	0.002205	7.6e-05
303.15	0.7466	0.002045	7.1e-05
303.15	0.8183	0.001909	6.6e-05
303.15	0.8713	0.001821	6.3e-05
303.15	0.9361	0.001769	6.2e-05
303.15	1	0.00176	6.1e-05
308.15	0.0762	0.003886	0.000129
308.15	0.1303	0.003674	0.000122
308.15	0.2045	0.003413	0.000114
308.15	0.2713	0.003169	0.000106
308.15	0.3461	0.002915	9.8e-05
308.15	0.4173	0.002674	9.1e-05
308.15	0.4857	0.002456	8.4e-05
308.15	0.5454	0.002296	7.9e-05
308.15	0.6115	0.002117	7.3e-05
308.15	0.6798	0.001961	6.8e-05
308.15	0.7466	0.001827	6.4e-05
308.15	0.8183	0.001725	6e-05
308.15	0.8713	0.001666	5.8e-05
308.15	0.9361	0.001628	5.7e-05
308.15	1	0.001617	5.7e-05

System: 1,2,4-trichlorobenzene + 2-octanol; phases: Liquid
Fixed: Pressure, kPa = 101
Property: Refractive index (Na D-line) (Liquid); method: ABBE:UFactor:4
Temperature, K	Mole fraction of 1,2,4-trichlorobenzene	Refractive index (Na D-line)	uncertainty
298.15	0.0762	1.4309	0.0012
298.15	0.1303	1.4366	0.0012
298.15	0.2045	1.4436	0.0012
298.15	0.2713	1.4501	0.0012
298.15	0.3461	1.4569	0.0012
298.15	0.4173	1.4631	0.0012
298.15	0.4857	1.4698	0.0012
298.15	0.5454	1.4758	0.0012
298.15	0.6115	1.4834	0.0012
298.15	0.6798	1.4919	0.0012
298.15	0.7466	1.5009	0.0012
298.15	0.8183	1.5119	0.0012
298.15	0.8713	1.521	0.0012
298.15	0.9361	1.534	0.0012
298.15	1	1.548	0.0012
303.15	0.0762	1.4285	0.0012
303.15	0.1303	1.4337	0.0012
303.15	0.2045	1.4406	0.0012
303.15	0.2713	1.4469	0.0012
303.15	0.3461	1.4539	0.0012
303.15	0.4173	1.4607	0.0012
303.15	0.4857	1.4676	0.0012
303.15	0.5454	1.474	0.0012
303.15	0.6115	1.4818	0.0012
303.15	0.6798	1.4905	0.0012
303.15	0.7466	1.4999	0.0012
303.15	0.8183	1.511	0.0012
303.15	0.8713	1.5202	0.0012
303.15	0.9361	1.5329	0.0012
303.15	1	1.546	0.0012
308.15	0.0762	1.4271	0.0012
308.15	0.1303	1.4325	0.0012
308.15	0.2045	1.4396	0.0012
308.15	0.2713	1.4459	0.0012
308.15	0.3461	1.4525	0.0012
308.15	0.4173	1.4591	0.0012
308.15	0.4857	1.4658	0.0012
308.15	0.5454	1.4718	0.0012
308.15	0.6115	1.4792	0.0012
308.15	0.6798	1.4877	0.0012
308.15	0.7466	1.4969	0.0012
308.15	0.8183	1.5078	0.0012
308.15	0.8713	1.517	0.0012
308.15	0.9361	1.5295	0.0012
308.15	1	1.543	0.0012

System: 1,2,4-trichlorobenzene + 2-octanol; phases: Liquid
Fixed: Pressure, kPa = 101
Property: Speed of sound, m/s (Liquid); method: Pulse-echo method
Temperature, K	Mole fraction of 1,2,4-trichlorobenzene	Speed of sound, m/s	uncertainty
298.15	0.0762	1301.7	1.3
298.15	0.1303	1296.7	1.3
298.15	0.2045	1290.1	1.3
298.15	0.2713	1283.7	1.3
298.15	0.3461	1278	1.3
298.15	0.4173	1273.2	1.3
298.15	0.4857	1269.8	1.2
298.15	0.5454	1267	1.2
298.15	0.6115	1264.2	1.2
298.15	0.6798	1261.9	1.2
298.15	0.7466	1259.9	1.2
298.15	0.8183	1259.2	1.2
298.15	0.8713	1260.4	1.2
298.15	0.9361	1264.2	1.2
298.15	1	1272	1.2
303.15	0.0762	1283.9	1.3
303.15	0.1303	1279.1	1.3
303.15	0.2045	1273	1.3
303.15	0.2713	1266.9	1.3
303.15	0.3461	1261.6	1.3
303.15	0.4173	1256.9	1.2
303.15	0.4857	1253.5	1.2
303.15	0.5454	1250.5	1.2
303.15	0.6115	1248	1.2
303.15	0.6798	1245.6	1.2
303.15	0.7466	1244.1	1.2
303.15	0.8183	1243.5	1.2
303.15	0.8713	1244.9	1.2
303.15	0.9361	1248.7	1.2
303.15	1	1256.4	1.2
308.15	0.0762	1266.3	1.3
308.15	0.1303	1261.9	1.3
308.15	0.2045	1255.8	1.3
308.15	0.2713	1250.3	1.3
308.15	0.3461	1244.9	1.2
308.15	0.4173	1240.3	1.2
308.15	0.4857	1237.1	1.2
308.15	0.5454	1234.6	1.2
308.15	0.6115	1232	1.2
308.15	0.6798	1229.9	1.2
308.15	0.7466	1228.4	1.2
308.15	0.8183	1228	1.2
308.15	0.8713	1229.3	1.2
308.15	0.9361	1233.4	1.2
308.15	1	1240.9	1.2

System: 1,2,4-trichlorobenzene + 2-octanol; phases: Liquid
Fixed: Pressure, kPa = 101
Property: Mass density, kg/m3 (Liquid); method: VIBTUB:UFactor:4
Temperature, K	Mole fraction of 1,2,4-trichlorobenzene	Mass density, kg/m3	uncertainty
298.15	0.0762	863.97	0.5
298.15	0.1303	896.31	0.43
298.15	0.2045	939.57	0.35
298.15	0.2713	977.28	0.28
298.15	0.3461	1018.61	0.28
298.15	0.4173	1057.62	0.35
298.15	0.4857	1095.63	0.43
298.15	0.5454	1129.39	0.5
298.15	0.6115	1167.72	0.58
298.15	0.6798	1209.26	0.66
298.15	0.7466	1252.54	0.75
298.15	0.8183	1302	0.86
298.15	0.8713	1341.45	0.94
298.15	0.9361	1392.95	1.05
298.15	1	1448.41	1.15
303.15	0.0762	860.11	0.5
303.15	0.1303	892.4	0.44
303.15	0.2045	935.51	0.36
303.15	0.2713	973.11	0.29
303.15	0.3461	1014.26	0.27
303.15	0.4173	1053.06	0.34
303.15	0.4857	1090.83	0.42
303.15	0.5454	1124.39	0.49
303.15	0.6115	1162.51	0.57
303.15	0.6798	1203.8	0.65
303.15	0.7466	1246.93	0.74
303.15	0.8183	1296.19	0.84
303.15	0.8713	1335.49	0.93
303.15	0.9361	1386.92	1.04
303.15	1	1442.43	1.14
308.15	0.0762	855.92	0.51
308.15	0.1303	887.97	0.45
308.15	0.2045	930.81	0.37
308.15	0.2713	968.5	0.3
308.15	0.3461	1009.82	0.26
308.15	0.4173	1048.71	0.34
308.15	0.4857	1086.14	0.41
308.15	0.5454	1119.57	0.48
308.15	0.6115	1157.41	0.56
308.15	0.6798	1198.89	0.64
308.15	0.7466	1241.6	0.73
308.15	0.8183	1290.6	0.83
308.15	0.8713	1329.97	0.92
308.15	0.9361	1381.4	1.02
308.15	1	1436.45	1.13
