Measured thermophysical data. Densities, Viscosities, Speeds of Sound, and Refractive Indices of Binary Mixtures of 1-Decanol with Isomeric Chlorotoluenes
Source: Int. J. Thermophys., 2011, 10.1007/s10765-011-0995-x
Compound 1: decan-1-ol, C10H22O, InChI=1S/C10H22O/c1-2-3-4-5-6-7-8-9-10-11/h11H,2-10H2,1H3, purity 99.5%
Compound 2: 2-chlorotoluene, C7H7Cl, InChI=1S/C7H7Cl/c1-6-4-2-3-5-7(6)8/h2-5H,1H3, purity 99.5%
Compound 3: 3-chlorotoluene, C7H7Cl, InChI=1S/C7H7Cl/c1-6-3-2-4-7(8)5-6/h2-5H,1H3, purity 99.5%
Compound 4: 4-chlorotoluene, C7H7Cl, InChI=1S/C7H7Cl/c1-6-2-4-7(8)5-3-6/h2-5H,1H3, purity 99.6%

System: decan-1-ol; phases: Liquid
Fixed: Pressure, kPa = 101.325
Property: Refractive index (Na D-line) (Liquid); method: Standard Abbe refractometry
Temperature, K	Refractive index (Na D-line)	uncertainty
298.15	1.4346	0.0005
303.15	1.4326	0.0005
308.15	1.4305	0.0005

System: decan-1-ol; phases: Liquid
Fixed: Pressure, kPa = 101
Property: Viscosity, Pa*s (Liquid); method: CAPTUB::UFactor:2
Temperature, K	Viscosity, Pa*s	uncertainty
298.15	0.011817	0.000111
303.15	0.009766	9.5e-05
308.15	0.00813	8.1e-05

System: decan-1-ol; phases: Liquid
Fixed: Pressure, kPa = 101
Property: Speed of sound, m/s (Liquid); method: Pulse-echo method
Temperature, K	Speed of sound, m/s	uncertainty
298.15	1380.1	1.3
303.15	1364.9	1.3
308.15	1346	1.3

System: decan-1-ol; phases: Liquid
Fixed: Pressure, kPa = 101
Property: Mass density, kg/m3 (Liquid); method: VIBTUB::UFactor:4
Temperature, K	Mass density, kg/m3	uncertainty
298.15	826.41	0.43
303.15	822.92	0.44
308.15	819.42	0.44

System: 2-chlorotoluene; phases: Liquid
Fixed: Pressure, kPa = 101.325
Property: Refractive index (Na D-line) (Liquid); method: Standard Abbe refractometry
Temperature, K	Refractive index (Na D-line)	uncertainty
298.15	1.5219	0.0005
303.15	1.5189	0.0005
308.15	1.5169	0.0005

System: 2-chlorotoluene; phases: Liquid
Fixed: Pressure, kPa = 101
Property: Viscosity, Pa*s (Liquid); method: CAPTUB::UFactor:2
Temperature, K	Viscosity, Pa*s	uncertainty
298.15	0.000943	1.3e-05
303.15	0.000885	1.2e-05
308.15	0.000805	1.1e-05

System: 2-chlorotoluene; phases: Liquid
Fixed: Pressure, kPa = 101
Property: Speed of sound, m/s (Liquid); method: Pulse-echo method
Temperature, K	Speed of sound, m/s	uncertainty
298.15	1301.2	1.3
303.15	1284.1	1.3
308.15	1266.1	1.3

System: 2-chlorotoluene; phases: Liquid
Fixed: Pressure, kPa = 101
Property: Mass density, kg/m3 (Liquid); method: VIBTUB::UFactor:4
Temperature, K	Mass density, kg/m3	uncertainty
298.15	1077.41	0.3
303.15	1072.83	0.3
308.15	1068.24	0.29

System: 3-chlorotoluene; phases: Liquid
Fixed: Pressure, kPa = 101.325
Property: Refractive index (Na D-line) (Liquid); method: Standard Abbe refractometry
Temperature, K	Refractive index (Na D-line)	uncertainty
298.15	1.5207	0.0005
303.15	1.5189	0.0005
308.15	1.5169	0.0005

System: 3-chlorotoluene; phases: Liquid
Fixed: Pressure, kPa = 101
Property: Viscosity, Pa*s (Liquid); method: CAPTUB::UFactor:2
Temperature, K	Viscosity, Pa*s	uncertainty
298.15	0.000798	1.1e-05
303.15	0.000746	1.1e-05
308.15	0.000705	1e-05

System: 3-chlorotoluene; phases: Liquid
Fixed: Pressure, kPa = 101
Property: Speed of sound, m/s (Liquid); method: Pulse-echo method
Temperature, K	Speed of sound, m/s	uncertainty
298.15	1298.3	1.3
303.15	1280.1	1.3
308.15	1262.1	1.3

System: 3-chlorotoluene; phases: Liquid
Fixed: Pressure, kPa = 101
Property: Mass density, kg/m3 (Liquid); method: VIBTUB::UFactor:4
Temperature, K	Mass density, kg/m3	uncertainty
298.15	1067.29	0.29
303.15	1062.81	0.28
308.15	1058.33	0.27

System: 4-chlorotoluene; phases: Liquid
Fixed: Pressure, kPa = 101.325
Property: Refractive index (Na D-line) (Liquid); method: Standard Abbe refractometry
Temperature, K	Refractive index (Na D-line)	uncertainty
298.15	1.5188	0.0005
303.15	1.5166	0.0005
308.15	1.5138	0.0005

System: 4-chlorotoluene; phases: Liquid
Fixed: Pressure, kPa = 101
Property: Viscosity, Pa*s (Liquid); method: CAPTUB::UFactor:2
Temperature, K	Viscosity, Pa*s	uncertainty
298.15	0.000828	1.1e-05
303.15	0.000784	1.1e-05
308.15	0.00073	1.1e-05

System: 4-chlorotoluene; phases: Liquid
Fixed: Pressure, kPa = 101
Property: Speed of sound, m/s (Liquid); method: Pulse-echo method
Temperature, K	Speed of sound, m/s	uncertainty
298.15	1289.1	1.2
303.15	1271	1.2
308.15	1253.1	1.2

System: 4-chlorotoluene; phases: Liquid
Fixed: Pressure, kPa = 101
Property: Mass density, kg/m3 (Liquid); method: VIBTUB::UFactor:4
Temperature, K	Mass density, kg/m3	uncertainty
298.15	1065.11	0.27
303.15	1059.51	0.26
308.15	1053.9	0.25

System: 2-chlorotoluene + decan-1-ol; phases: Liquid
Fixed: Pressure, kPa = 101
Property: Viscosity, Pa*s (Liquid); method: CAPTUB:UFactor:2
Temperature, K	Mole fraction of 2-chlorotoluene	Viscosity, Pa*s	uncertainty
298.15	0	0.011817	0.000111
298.15	0.0734	0.010002	9.7e-05
298.15	0.1537	0.008277	8.3e-05
298.15	0.2064	0.007283	7.4e-05
298.15	0.2747	0.00613	6.5e-05
298.15	0.345	0.005101	5.7e-05
298.15	0.4107	0.004289	4.8e-05
298.15	0.489	0.003477	4e-05
298.15	0.5555	0.002906	3.3e-05
298.15	0.6158	0.002468	2.9e-05
298.15	0.6813	0.002075	2.4e-05
298.15	0.7475	0.001742	2.1e-05
298.15	0.8205	0.001446	1.8e-05
298.15	0.884	0.001235	1.5e-05
298.15	0.9469	0.001062	1.4e-05
298.15	1	0.000943	1.3e-05
303.15	0	0.009766	9.5e-05
303.15	0.0734	0.008289	8.3e-05
303.15	0.1537	0.006862	7.1e-05
303.15	0.2064	0.006042	6.4e-05
303.15	0.2747	0.005103	5.7e-05
303.15	0.345	0.004266	4.8e-05
303.15	0.4107	0.003603	4.1e-05
303.15	0.489	0.002952	3.4e-05
303.15	0.5555	0.002486	2.9e-05
303.15	0.6158	0.002133	2.5e-05
303.15	0.6813	0.001806	2.1e-05
303.15	0.7475	0.001538	1.9e-05
303.15	0.8205	0.001294	1.6e-05
303.15	0.884	0.001124	1.4e-05
303.15	0.9469	0.000984	1.3e-05
303.15	1	0.000885	1.2e-05
308.15	0	0.00813	8.1e-05
308.15	0.0734	0.006889	7.1e-05
308.15	0.1537	0.005734	6.2e-05
308.15	0.2064	0.005078	5.6e-05
308.15	0.2747	0.004313	4.9e-05
308.15	0.345	0.003637	4.1e-05
308.15	0.4107	0.00308	3.5e-05
308.15	0.489	0.002528	2.9e-05
308.15	0.5555	0.002134	2.5e-05
308.15	0.6158	0.001837	2.2e-05
308.15	0.6813	0.001566	1.9e-05
308.15	0.7475	0.001338	1.6e-05
308.15	0.8205	0.001135	1.4e-05
308.15	0.884	0.000995	1.3e-05
308.15	0.9469	0.000879	1.2e-05
308.15	1	0.000805	1.1e-05

System: 2-chlorotoluene + decan-1-ol; phases: Liquid
Fixed: Pressure, kPa = 101
Property: Refractive index (Na D-line) (Liquid); method: Standard Abbe refractometry
Temperature, K	Mole fraction of 2-chlorotoluene	Refractive index (Na D-line)	uncertainty
298.15	0	1.4346	0.0005
298.15	0.0734	1.4377	0.0005
298.15	0.1537	1.4413	0.0005
298.15	0.2064	1.444	0.0005
298.15	0.2747	1.4479	0.0005
298.15	0.345	1.4524	0.0005
298.15	0.4107	1.4569	0.0005
298.15	0.489	1.4628	0.0005
298.15	0.5555	1.4685	0.0005
298.15	0.6158	1.4741	0.0005
298.15	0.6813	1.4806	0.0005
298.15	0.7475	1.4878	0.0005
298.15	0.8205	1.4966	0.0005
298.15	0.884	1.505	0.0005
298.15	0.9469	1.514	0.0005
298.15	1	1.5219	0.0005
303.15	0	1.4326	0.0005
303.15	0.0734	1.4359	0.0005
303.15	0.1537	1.4394	0.0005
303.15	0.2064	1.4423	0.0005
303.15	0.2747	1.4462	0.0005
303.15	0.345	1.4505	0.0005
303.15	0.4107	1.4549	0.0005
303.15	0.489	1.4608	0.0005
303.15	0.5555	1.4664	0.0005
303.15	0.6158	1.4719	0.0005
303.15	0.6813	1.4784	0.0005
303.15	0.7475	1.4855	0.0005
303.15	0.8205	1.4941	0.0005
303.15	0.884	1.5023	0.0005
303.15	0.9469	1.5111	0.0005
303.15	1	1.5189	0.0005
308.15	0	1.4305	0.0005
308.15	0.0734	1.4339	0.0005
308.15	0.1537	1.4378	0.0005
308.15	0.2064	1.4406	0.0005
308.15	0.2747	1.4445	0.0005
308.15	0.345	1.4489	0.0005
308.15	0.4107	1.4534	0.0005
308.15	0.489	1.4592	0.0005
308.15	0.5555	1.4648	0.0005
308.15	0.6158	1.4702	0.0005
308.15	0.6813	1.4767	0.0005
308.15	0.7475	1.4839	0.0005
308.15	0.8205	1.4924	0.0005
308.15	0.884	1.5005	0.0005
308.15	0.9469	1.5092	0.0005
308.15	1	1.5169	0.0005

System: 2-chlorotoluene + decan-1-ol; phases: Liquid
Fixed: Pressure, kPa = 101
Property: Speed of sound, m/s (Liquid); method: Pulse-echo method
Temperature, K	Mole fraction of 2-chlorotoluene	Speed of sound, m/s	uncertainty
298.15	0	1380.1	1.3
298.15	0.0734	1373.9	1.3
298.15	0.1537	1366.5	1.3
298.15	0.2064	1361.3	1.3
298.15	0.2747	1354.2	1.3
298.15	0.345	1346.6	1.3
298.15	0.4107	1339.4	1.3
298.15	0.489	1330.9	1.3
298.15	0.5555	1323.8	1.3
298.15	0.6158	1317.6	1.3
298.15	0.6813	1311.5	1.3
298.15	0.7475	1306	1.3
298.15	0.8205	1301.2	1.3
298.15	0.884	1298.7	1.3
298.15	0.9469	1298.5	1.3
298.15	1	1301.2	1.3
303.15	0	1364.9	1.3
303.15	0.0734	1358.4	1.3
303.15	0.1537	1350.5	1.3
303.15	0.2064	1344.9	1.3
303.15	0.2747	1337.3	1.3
303.15	0.345	1329.3	1.3
303.15	0.4107	1321.7	1.3
303.15	0.489	1312.7	1.3
303.15	0.5555	1305.2	1.3
303.15	0.6158	1298.8	1.3
303.15	0.6813	1292.5	1.3
303.15	0.7475	1286.9	1.3
303.15	0.8205	1282.3	1.3
303.15	0.884	1280	1.3
303.15	0.9469	1280.6	1.3
303.15	1	1284.1	1.3
308.15	0	1346	1.3
308.15	0.0734	1339.3	1.3
308.15	0.1537	1330.9	1.3
308.15	0.2064	1324.9	1.3
308.15	0.2747	1316.8	1.3
308.15	0.345	1308.2	1.3
308.15	0.4107	1300	1.3
308.15	0.489	1290.6	1.3
308.15	0.5555	1283.1	1.3
308.15	0.6158	1276.7	1.3
308.15	0.6813	1270.8	1.3
308.15	0.7475	1266.1	1.3
308.15	0.8205	1262.5	1.3
308.15	0.884	1261.6	1.3
308.15	0.9469	1262.2	1.3
308.15	1	1266.1	1.3

System: 2-chlorotoluene + decan-1-ol; phases: Liquid
Fixed: Pressure, kPa = 101
Property: Mass density, kg/m3 (Liquid); method: VIBTUB:UFactor:4
Temperature, K	Mole fraction of 2-chlorotoluene	Mass density, kg/m3	uncertainty
298.15	0	826.41	0.43
298.15	0.0734	838.4	0.41
298.15	0.1537	852.15	0.39
298.15	0.2064	861.61	0.38
298.15	0.2747	874.4	0.36
298.15	0.345	888.32	0.34
298.15	0.4107	902.06	0.32
298.15	0.489	919.52	0.3
298.15	0.5555	935.39	0.28
298.15	0.6158	950.72	0.25
298.15	0.6813	968.52	0.23
298.15	0.7475	987.82	0.21
298.15	0.8205	1010.87	0.21
298.15	0.884	1032.61	0.24
298.15	0.9469	1056.04	0.28
298.15	1	1077.41	0.3
303.15	0	822.92	0.44
303.15	0.0734	834.73	0.42
303.15	0.1537	848.3	0.4
303.15	0.2064	857.65	0.39
303.15	0.2747	870.31	0.37
303.15	0.345	884.08	0.35
303.15	0.4107	897.72	0.33
303.15	0.489	915.05	0.3
303.15	0.5555	930.83	0.28
303.15	0.6158	946.09	0.26
303.15	0.6813	963.84	0.24
303.15	0.7475	983.1	0.21
303.15	0.8205	1006.13	0.2
303.15	0.884	1027.9	0.23
303.15	0.9469	1051.38	0.27
303.15	1	1072.83	0.3
308.15	0	819.42	0.44
308.15	0.0734	831.1	0.42
308.15	0.1537	844.55	0.4
308.15	0.2064	853.84	0.39
308.15	0.2747	866.4	0.37
308.15	0.345	880.08	0.35
308.15	0.4107	893.62	0.33
308.15	0.489	910.82	0.31
308.15	0.5555	926.51	0.29
308.15	0.6158	941.68	0.27
308.15	0.6813	959.32	0.24
308.15	0.7475	978.5	0.22
308.15	0.8205	1001.49	0.19
308.15	0.884	1023.23	0.23
308.15	0.9469	1046.71	0.26
308.15	1	1068.24	0.29

System: 3-chlorotoluene + decan-1-ol; phases: Liquid
Fixed: Pressure, kPa = 101
Property: Viscosity, Pa*s (Liquid); method: CAPTUB:UFactor:2
Temperature, K	Mole fraction of 3-chlorotoluene	Viscosity, Pa*s	uncertainty
298.15	0	0.011817	0.000111
298.15	0.0745	0.010083	9.7e-05
298.15	0.1337	0.008723	8.6e-05
298.15	0.2017	0.00728	7.4e-05
298.15	0.2741	0.005927	6.3e-05
298.15	0.3471	0.004762	5.3e-05
298.15	0.4139	0.003862	4.4e-05
298.15	0.4616	0.003322	3.8e-05
298.15	0.5532	0.002496	2.9e-05
298.15	0.6282	0.001985	2.3e-05
298.15	0.6772	0.001724	2.1e-05
298.15	0.7447	0.001429	1.7e-05
298.15	0.8245	0.00117	1.5e-05
298.15	0.8876	0.001016	1.3e-05
298.15	0.9433	0.000906	1.2e-05
298.15	1	0.000798	1.1e-05
303.15	0	0.009766	9.5e-05
303.15	0.0745	0.008289	8.3e-05
303.15	0.1337	0.007171	7.4e-05
303.15	0.2017	0.006013	6.4e-05
303.15	0.2741	0.004905	5.5e-05
303.15	0.3471	0.003977	4.5e-05
303.15	0.4139	0.003261	3.7e-05
303.15	0.4616	0.002821	3.3e-05
303.15	0.5532	0.002161	2.5e-05
303.15	0.6282	0.001744	2.1e-05
303.15	0.6772	0.001523	1.8e-05
303.15	0.7447	0.001282	1.6e-05
303.15	0.8245	0.001063	1.4e-05
303.15	0.8876	0.000934	1.2e-05
303.15	0.9433	0.000844	1.2e-05
303.15	1	0.000746	1.1e-05
308.15	0	0.00813	8.1e-05
308.15	0.0745	0.006908	7.1e-05
308.15	0.1337	0.006001	6.4e-05
308.15	0.2017	0.005022	5.6e-05
308.15	0.2741	0.004123	4.7e-05
308.15	0.3471	0.003348	3.8e-05
308.15	0.4139	0.002771	3.2e-05
308.15	0.4616	0.002423	2.8e-05
308.15	0.5532	0.001862	2.2e-05
308.15	0.6282	0.001521	1.8e-05
308.15	0.6772	0.001343	1.6e-05
308.15	0.7447	0.001142	1.4e-05
308.15	0.8245	0.00096	1.3e-05
308.15	0.8876	0.000851	1.2e-05
308.15	0.9433	0.000777	1.1e-05
308.15	1	0.000705	1e-05

System: 3-chlorotoluene + decan-1-ol; phases: Liquid
Fixed: Pressure, kPa = 101
Property: Refractive index (Na D-line) (Liquid); method: Standard Abbe refractometry
Temperature, K	Mole fraction of 3-chlorotoluene	Refractive index (Na D-line)	uncertainty
298.15	0	1.4346	0.0005
298.15	0.0745	1.4371	0.0005
298.15	0.1337	1.4394	0.0005
298.15	0.2017	1.4424	0.0005
298.15	0.2741	1.446	0.0005
298.15	0.3471	1.4501	0.0005
298.15	0.4139	1.4545	0.0005
298.15	0.4616	1.4579	0.0005
298.15	0.5532	1.4653	0.0005
298.15	0.6282	1.4723	0.0005
298.15	0.6772	1.4772	0.0005
298.15	0.7447	1.4847	0.0005
298.15	0.8245	1.4947	0.0005
298.15	0.8876	1.5034	0.0005
298.15	0.9433	1.5117	0.0005
298.15	1	1.5207	0.0005
303.15	0	1.4326	0.0005
303.15	0.0745	1.4353	0.0005
303.15	0.1337	1.4378	0.0005
303.15	0.2017	1.4408	0.0005
303.15	0.2741	1.4445	0.0005
303.15	0.3471	1.4488	0.0005
303.15	0.4139	1.4533	0.0005
303.15	0.4616	1.4567	0.0005
303.15	0.5532	1.4641	0.0005
303.15	0.6282	1.4711	0.0005
303.15	0.6772	1.4761	0.0005
303.15	0.7447	1.4835	0.0005
303.15	0.8245	1.4932	0.0005
303.15	0.8876	1.5017	0.0005
303.15	0.9433	1.5099	0.0005
303.15	1	1.5189	0.0005
308.15	0	1.4305	0.0005
308.15	0.0745	1.4334	0.0005
308.15	0.1337	1.436	0.0005
308.15	0.2017	1.4391	0.0005
308.15	0.2741	1.443	0.0005
308.15	0.3471	1.4473	0.0005
308.15	0.4139	1.4518	0.0005
308.15	0.4616	1.4553	0.0005
308.15	0.5532	1.4628	0.0005
308.15	0.6282	1.4697	0.0005
308.15	0.6772	1.4747	0.0005
308.15	0.7447	1.482	0.0005
308.15	0.8245	1.4917	0.0005
308.15	0.8876	1.5	0.0005
308.15	0.9433	1.5082	0.0005
308.15	1	1.5169	0.0005

System: 3-chlorotoluene + decan-1-ol; phases: Liquid
Fixed: Pressure, kPa = 101
Property: Speed of sound, m/s (Liquid); method: Pulse-echo method
Temperature, K	Mole fraction of 3-chlorotoluene	Speed of sound, m/s	uncertainty
298.15	0	1380.1	1.3
298.15	0.0745	1371.6	1.3
298.15	0.1337	1364.4	1.3
298.15	0.2017	1356	1.3
298.15	0.2741	1347	1.3
298.15	0.3471	1338	1.3
298.15	0.4139	1329.9	1.3
298.15	0.4616	1324.3	1.3
298.15	0.5532	1314.9	1.3
298.15	0.6282	1308.1	1.3
298.15	0.6772	1304.1	1.3
298.15	0.7447	1300	1.3
298.15	0.8245	1296.6	1.3
298.15	0.8876	1296.2	1.3
298.15	0.9433	1297.1	1.3
298.15	1	1298.3	1.3
303.15	0	1364.9	1.3
303.15	0.0745	1355.2	1.3
303.15	0.1337	1347	1.3
303.15	0.2017	1337.4	1.3
303.15	0.2741	1327.4	1.3
303.15	0.3471	1318	1.3
303.15	0.4139	1309.9	1.3
303.15	0.4616	1304.4	1.3
303.15	0.5532	1295.5	1.3
303.15	0.6282	1289.3	1.3
303.15	0.6772	1285.8	1.3
303.15	0.7447	1281.9	1.3
303.15	0.8245	1278.3	1.3
303.15	0.8876	1276.7	1.3
303.15	0.9433	1276.5	1.3
303.15	1	1280.1	1.3
308.15	0	1346	1.3
308.15	0.0745	1335	1.3
308.15	0.1337	1325.8	1.3
308.15	0.2017	1315.4	1.3
308.15	0.2741	1305	1.3
308.15	0.3471	1295.4	1.3
308.15	0.4139	1287.6	1.3
308.15	0.4616	1282.4	1.3
308.15	0.5532	1273.9	1.3
308.15	0.6282	1268.3	1.3
308.15	0.6772	1265.4	1.3
308.15	0.7447	1261.9	1.3
308.15	0.8245	1258.4	1.3
308.15	0.8876	1257.5	1.3
308.15	0.9433	1257.8	1.3
308.15	1	1262.1	1.3

System: 3-chlorotoluene + decan-1-ol; phases: Liquid
Fixed: Pressure, kPa = 101
Property: Mass density, kg/m3 (Liquid); method: VIBTUB:UFactor:4
Temperature, K	Mole fraction of 3-chlorotoluene	Mass density, kg/m3	uncertainty
298.15	0	826.41	0.43
298.15	0.0745	837.98	0.41
298.15	0.1337	847.61	0.4
298.15	0.2017	859.18	0.38
298.15	0.2741	872.19	0.36
298.15	0.3471	886.08	0.34
298.15	0.4139	899.55	0.33
298.15	0.4616	909.68	0.31
298.15	0.5532	930.44	0.28
298.15	0.6282	948.88	0.26
298.15	0.6772	961.72	0.24
298.15	0.7447	980.55	0.21
298.15	0.8245	1004.78	0.2
298.15	0.8876	1025.62	0.23
298.15	0.9433	1045.43	0.26
298.15	1	1067.29	0.29
303.15	0	822.92	0.44
303.15	0.0745	834.43	0.42
303.15	0.1337	844.01	0.41
303.15	0.2017	855.5	0.39
303.15	0.2741	868.42	0.37
303.15	0.3471	882.21	0.35
303.15	0.4139	895.58	0.33
303.15	0.4616	905.65	0.32
303.15	0.5532	926.26	0.29
303.15	0.6282	944.59	0.26
303.15	0.6772	957.36	0.24
303.15	0.7447	976.11	0.22
303.15	0.8245	1000.26	0.19
303.15	0.8876	1021.06	0.22
303.15	0.9433	1040.84	0.26
303.15	1	1062.81	0.28
308.15	0	819.42	0.44
308.15	0.0745	830.88	0.42
308.15	0.1337	840.4	0.41
308.15	0.2017	851.82	0.39
308.15	0.2741	864.64	0.38
308.15	0.3471	878.33	0.36
308.15	0.4139	891.6	0.34
308.15	0.4616	901.59	0.32
308.15	0.5532	922.06	0.29
308.15	0.6282	940.26	0.27
308.15	0.6772	952.94	0.25
308.15	0.7447	971.61	0.23
308.15	0.8245	995.7	0.19
308.15	0.8876	1016.44	0.21
308.15	0.9433	1036.25	0.25
308.15	1	1058.33	0.27

System: 4-chlorotoluene + decan-1-ol; phases: Liquid
Fixed: Pressure, kPa = 101
Property: Viscosity, Pa*s (Liquid); method: CAPTUB:UFactor:2
Temperature, K	Mole fraction of 4-chlorotoluene	Viscosity, Pa*s	uncertainty
298.15	0	0.011817	0.000111
298.15	0.0718	0.009725	9.4e-05
298.15	0.1353	0.008154	8.1e-05
298.15	0.1976	0.006842	7.1e-05
298.15	0.2703	0.005561	6e-05
298.15	0.341	0.004546	5.1e-05
298.15	0.4103	0.003733	4.2e-05
298.15	0.482	0.003045	3.5e-05
298.15	0.5531	0.002495	2.9e-05
298.15	0.6234	0.002058	2.4e-05
298.15	0.7045	0.001654	2e-05
298.15	0.7497	0.001472	1.8e-05
298.15	0.8196	0.001239	1.5e-05
298.15	0.8907	0.001047	1.3e-05
298.15	0.9556	0.000907	1.2e-05
298.15	1	0.000828	1.1e-05
303.15	0	0.009766	9.5e-05
303.15	0.0718	0.008053	8.1e-05
303.15	0.1353	0.006766	7e-05
303.15	0.1976	0.005705	6.1e-05
303.15	0.2703	0.004658	5.2e-05
303.15	0.341	0.003825	4.3e-05
303.15	0.4103	0.003162	3.6e-05
303.15	0.482	0.002608	3e-05
303.15	0.5531	0.002157	2.5e-05
303.15	0.6234	0.001798	2.1e-05
303.15	0.7045	0.001472	1.8e-05
303.15	0.7497	0.001325	1.6e-05
303.15	0.8196	0.001134	1.4e-05
303.15	0.8907	0.000972	1.3e-05
303.15	0.9556	0.00085	1.2e-05
303.15	1	0.000784	1.1e-05
308.15	0	0.00813	8.1e-05
308.15	0.0718	0.006713	7e-05
308.15	0.1353	0.005652	6.1e-05
308.15	0.1976	0.004769	5.3e-05
308.15	0.2703	0.003909	4.4e-05
308.15	0.341	0.00323	3.7e-05
308.15	0.4103	0.002678	3.1e-05
308.15	0.482	0.002224	2.6e-05
308.15	0.5531	0.001851	2.2e-05
308.15	0.6234	0.001558	1.9e-05
308.15	0.7045	0.001289	1.6e-05
308.15	0.7497	0.001166	1.4e-05
308.15	0.8196	0.001008	1.3e-05
308.15	0.8907	0.000875	1.2e-05
308.15	0.9556	0.000781	1.1e-05
308.15	1	0.00073	1.1e-05

System: 4-chlorotoluene + decan-1-ol; phases: Liquid
Fixed: Pressure, kPa = 101
Property: Refractive index (Na D-line) (Liquid); method: Standard Abbe refractometry
Temperature, K	Mole fraction of 4-chlorotoluene	Refractive index (Na D-line)	uncertainty
298.15	0	1.4346	0.0005
298.15	0.0718	1.4376	0.0005
298.15	0.1353	1.4405	0.0005
298.15	0.1976	1.4437	0.0005
298.15	0.2703	1.4477	0.0005
298.15	0.341	1.4519	0.0005
298.15	0.4103	1.4566	0.0005
298.15	0.482	1.4618	0.0005
298.15	0.5531	1.4676	0.0005
298.15	0.6234	1.4738	0.0005
298.15	0.7045	1.4818	0.0005
298.15	0.7497	1.4866	0.0005
298.15	0.8196	1.4947	0.0005
298.15	0.8907	1.5035	0.0005
298.15	0.9556	1.5124	0.0005
298.15	1	1.5188	0.0005
303.15	0	1.4326	0.0005
303.15	0.0718	1.4357	0.0005
303.15	0.1353	1.4387	0.0005
303.15	0.1976	1.4418	0.0005
303.15	0.2703	1.4458	0.0005
303.15	0.341	1.4501	0.0005
303.15	0.4103	1.4547	0.0005
303.15	0.482	1.46	0.0005
303.15	0.5531	1.4657	0.0005
303.15	0.6234	1.4719	0.0005
303.15	0.7045	1.4798	0.0005
303.15	0.7497	1.4846	0.0005
303.15	0.8196	1.4926	0.0005
303.15	0.8907	1.5015	0.0005
303.15	0.9556	1.5104	0.0005
303.15	1	1.5166	0.0005
308.15	0	1.4305	0.0005
308.15	0.0718	1.4337	0.0005
308.15	0.1353	1.4367	0.0005
308.15	0.1976	1.4398	0.0005
308.15	0.2703	1.4439	0.0005
308.15	0.341	1.4481	0.0005
308.15	0.4103	1.4527	0.0005
308.15	0.482	1.458	0.0005
308.15	0.5531	1.4637	0.0005
308.15	0.6234	1.4698	0.0005
308.15	0.7045	1.4776	0.0005
308.15	0.7497	1.4824	0.0005
308.15	0.8196	1.4902	0.0005
308.15	0.8907	1.499	0.0005
308.15	0.9556	1.5078	0.0005
308.15	1	1.5138	0.0005

System: 4-chlorotoluene + decan-1-ol; phases: Liquid
Fixed: Pressure, kPa = 101
Property: Speed of sound, m/s (Liquid); method: Pulse-echo method
Temperature, K	Mole fraction of 4-chlorotoluene	Speed of sound, m/s	uncertainty
298.15	0	1380.1	1.3
298.15	0.0718	1373.1	1.3
298.15	0.1353	1366.4	1.3
298.15	0.1976	1359.4	1.3
298.15	0.2703	1350.9	1.3
298.15	0.341	1342.3	1.3
298.15	0.4103	1333.9	1.3
298.15	0.482	1325	1.3
298.15	0.5531	1316.5	1.3
298.15	0.6234	1308.6	1.2
298.15	0.7045	1300.2	1.2
298.15	0.7497	1296.1	1.2
298.15	0.8196	1291	1.2
298.15	0.8907	1288	1.2
298.15	0.9556	1287.5	1.2
298.15	1	1289.1	1.2
303.15	0	1364.9	1.3
303.15	0.0718	1357.3	1.3
303.15	0.1353	1350.1	1.3
303.15	0.1976	1342.7	1.3
303.15	0.2703	1333.7	1.3
303.15	0.341	1324.7	1.3
303.15	0.4103	1315.9	1.3
303.15	0.482	1307	1.3
303.15	0.5531	1298.4	1.2
303.15	0.6234	1290.5	1.2
303.15	0.7045	1282.3	1.2
303.15	0.7497	1278.3	1.2
303.15	0.8196	1273	1.2
303.15	0.8907	1269.5	1.2
303.15	0.9556	1269.1	1.2
303.15	1	1271	1.2
308.15	0	1346	1.3
308.15	0.0718	1338.2	1.3
308.15	0.1353	1330.8	1.3
308.15	0.1976	1323.1	1.3
308.15	0.2703	1313.8	1.3
308.15	0.341	1304.8	1.3
308.15	0.4103	1295.9	1.3
308.15	0.482	1286.9	1.3
308.15	0.5531	1278.3	1.2
308.15	0.6234	1270.5	1.2
308.15	0.7045	1262.5	1.2
308.15	0.7497	1258.5	1.2
308.15	0.8196	1253.9	1.2
308.15	0.8907	1250.7	1.2
308.15	0.9556	1251	1.2
308.15	1	1253.1	1.2

System: 4-chlorotoluene + decan-1-ol; phases: Liquid
Fixed: Pressure, kPa = 101
Property: Mass density, kg/m3 (Liquid); method: VIBTUB:UFactor:4
Temperature, K	Mole fraction of 4-chlorotoluene	Mass density, kg/m3	uncertainty
298.15	0	826.41	0.43
298.15	0.0718	837.82	0.41
298.15	0.1353	848.32	0.4
298.15	0.1976	859.01	0.38
298.15	0.2703	872.09	0.36
298.15	0.341	885.46	0.34
298.15	0.4103	899.31	0.32
298.15	0.482	914.52	0.3
298.15	0.5531	930.57	0.27
298.15	0.6234	947.55	0.25
298.15	0.7045	968.72	0.22
298.15	0.7497	981.35	0.2
298.15	0.8196	1002.21	0.18
298.15	0.8907	1025.23	0.22
298.15	0.9556	1048.23	0.25
298.15	1	1065.11	0.27
303.15	0	822.92	0.44
303.15	0.0718	834.11	0.42
303.15	0.1353	844.43	0.4
303.15	0.1976	854.95	0.39
303.15	0.2703	867.83	0.37
303.15	0.341	881.03	0.35
303.15	0.4103	894.71	0.33
303.15	0.482	909.75	0.3
303.15	0.5531	925.66	0.28
303.15	0.6234	942.5	0.26
303.15	0.7045	963.53	0.23
303.15	0.7497	976.09	0.21
303.15	0.8196	996.85	0.18
303.15	0.8907	1019.78	0.21
303.15	0.9556	1042.69	0.24
303.15	1	1059.51	0.26
308.15	0	819.42	0.44
308.15	0.0718	830.35	0.42
308.15	0.1353	840.48	0.41
308.15	0.1976	850.84	0.39
308.15	0.2703	863.56	0.37
308.15	0.341	876.62	0.35
308.15	0.4103	890.19	0.33
308.15	0.482	905.12	0.31
308.15	0.5531	920.91	0.29
308.15	0.6234	937.62	0.26
308.15	0.7045	958.46	0.23
308.15	0.7497	970.92	0.22
308.15	0.8196	991.5	0.19
308.15	0.8907	1014.28	0.2
308.15	0.9556	1037.1	0.23
308.15	1	1053.9	0.25
