Measured thermophysical data. Densities, Excess Molar Volumes, Ultrasonic Speeds, and Isentropic Compressibilities of Hexan-1-ol with 1,2-Dichloroethane, 1,2-Dibromoethane, and 1,1,2,2-Tetrachloroethene at (293.15 and 298.15) K
Source: Int. J. Thermophys., 2010, 10.1007/s10765-010-0874-x
Compound 1: hexan-1-ol, C6H14O, InChI=1S/C6H14O/c1-2-3-4-5-6-7/h7H,2-6H2,1H3
Compound 2: 1,2-dichloroethane, C2H4Cl2, InChI=1S/C2H4Cl2/c3-1-2-4/h1-2H2
Compound 3: 1,2-dibromoethane, C2H4Br2, InChI=1S/C2H4Br2/c3-1-2-4/h1-2H2
Compound 4: tetrachloroethene, C2Cl4, InChI=1S/C2Cl4/c3-1(4)2(5)6

System: hexan-1-ol; phases: Liquid
Fixed: Pressure, kPa = 101
Property: Speed of sound, m/s (Liquid); method: Sing-around technique in a fixed-path interferometer
Temperature, K	Speed of sound, m/s	uncertainty
293.15	1320.11	0.83
298.15	1303.19	0.83

System: hexan-1-ol; phases: Liquid
Fixed: Pressure, kPa = 101
Property: Mass density, kg/m3 (Liquid); method: VIBTUB:UFactor:4
Temperature, K	Mass density, kg/m3	uncertainty
293.15	818.856	0.44
298.15	815.281	0.445

System: 1,2-dichloroethane; phases: Liquid
Fixed: Pressure, kPa = 101
Property: Speed of sound, m/s (Liquid); method: Sing-around technique in a fixed-path interferometer
Temperature, K	Speed of sound, m/s	uncertainty
293.15	1212.92	0.8
298.15	1193.6	0.79

System: 1,2-dichloroethane; phases: Liquid
Fixed: Pressure, kPa = 101
Property: Mass density, kg/m3 (Liquid); method: VIBTUB::UFactor:4
Temperature, K	Mass density, kg/m3	uncertainty
293.15	1252.766	0.596
298.15	1245.555	0.584

System: 1,2-dibromoethane; phases: Liquid
Fixed: Pressure, kPa = 101
Property: Speed of sound, m/s (Liquid); method: Sing-around technique in a fixed-path interferometer
Temperature, K	Speed of sound, m/s	uncertainty
293.15	1007.04	0.74
298.15	994.27	0.74

System: 1,2-dibromoethane; phases: Liquid
Fixed: Pressure, kPa = 101
Property: Mass density, kg/m3 (Liquid); method: VIBTUB::UFactor:4
Temperature, K	Mass density, kg/m3	uncertainty
293.15	2179.591	2.202
298.15	2169.137	2.184

System: tetrachloroethene; phases: Liquid
Fixed: Pressure, kPa = 101
Property: Speed of sound, m/s (Liquid); method: Sing-around technique in a fixed-path interferometer
Temperature, K	Speed of sound, m/s	uncertainty
293.15	1054.03	0.75
298.15	1038.97	0.75

System: tetrachloroethene; phases: Liquid
Fixed: Pressure, kPa = 101
Property: Mass density, kg/m3 (Liquid); method: VIBTUB::UFactor:4
Temperature, K	Mass density, kg/m3	uncertainty
293.15	1622.745	1.227
298.15	1614.427	1.213

System: 1,2-dichloroethane + hexan-1-ol; phases: Liquid
Fixed: Pressure, kPa = 101
Property: Speed of sound, m/s (Liquid); method: Sing-around technique in a fixed-path interferometer
Temperature, K	Mole fraction of 1,2-dichloroethane	Speed of sound, m/s	uncertainty
293.15	0	1320.11	0.83
293.15	0.037	1313.23	0.83
293.15	0.0769	1305.34	0.83
293.15	0.1499	1291.65	0.83
293.15	0.2147	1279.69	0.82
293.15	0.2935	1265.23	0.82
293.15	0.3952	1247.72	0.81
293.15	0.4532	1238.5	0.81
293.15	0.5596	1222.83	0.8
293.15	0.6113	1216.72	0.8
293.15	0.6971	1207.92	0.8
293.15	0.7791	1202.28	0.8
293.15	0.8563	1200.73	0.8
293.15	0.9335	1205.44	0.8
293.15	0.979	1211.76	0.8
293.15	1	1212.92	0.8
298.15	0	1303.19	0.83
298.15	0.037	1296.2	0.83
298.15	0.0769	1288.16	0.82
298.15	0.1499	1274.32	0.82
298.15	0.2147	1262.25	0.82
298.15	0.2935	1247.95	0.81
298.15	0.3952	1230.01	0.81
298.15	0.4532	1220.72	0.8
298.15	0.5596	1205.96	0.8
298.15	0.6113	1199.78	0.8
298.15	0.6971	1189.72	0.79
298.15	0.7791	1184.29	0.79
298.15	0.8563	1182.77	0.79
298.15	0.9335	1184.35	0.79
298.15	0.979	1187.66	0.79
298.15	1	1193.6	0.79

System: 1,2-dichloroethane + hexan-1-ol; phases: Liquid
Fixed: Pressure, kPa = 101
Property: Mass density, kg/m3 (Liquid); method: VIBTUB:UFactor:4
Temperature, K	Mole fraction of 1,2-dichloroethane	Mass density, kg/m3	uncertainty
293.15	0	818.856	0.44
293.15	0.037	828.769	0.429
293.15	0.0769	839.847	0.413
293.15	0.1499	860.583	0.383
293.15	0.2147	879.725	0.355
293.15	0.2935	904.954	0.32
293.15	0.3952	940.475	0.27
293.15	0.4532	962.107	0.242
293.15	0.5596	1005.05	0.199
293.15	0.6113	1027.551	0.237
293.15	0.6971	1067.981	0.303
293.15	0.7791	1111.055	0.374
293.15	0.8563	1155.161	0.449
293.15	0.9335	1205.426	0.533
293.15	0.979	1236.986	0.587
293.15	1	1252.766	0.596
298.15	0	815.281	0.445
298.15	0.037	825.105	0.434
298.15	0.0769	836.074	0.418
298.15	0.1499	856.62	0.388
298.15	0.2147	875.586	0.361
298.15	0.2935	900.591	0.326
298.15	0.3952	935.784	0.276
298.15	0.4532	957.223	0.248
298.15	0.5596	999.79	0.191
298.15	0.6113	1022.091	0.228
298.15	0.6971	1062.138	0.293
298.15	0.7791	1104.851	0.364
298.15	0.8563	1148.594	0.438
298.15	0.9335	1198.465	0.522
298.15	0.979	1229.798	0.575
298.15	1	1245.555	0.584

System: 1,2-dibromoethane + hexan-1-ol; phases: Liquid
Fixed: Pressure, kPa = 101
Property: Speed of sound, m/s (Liquid); method: Sing-around technique in a fixed-path interferometer
Temperature, K	Mole fraction of 1,2-dibromoethane	Speed of sound, m/s	uncertainty
293.15	0	1320.11	0.83
293.15	0.0402	1296.69	0.83
293.15	0.0682	1280.96	0.83
293.15	0.1276	1249.37	0.82
293.15	0.2056	1211.19	0.81
293.15	0.2686	1182.94	0.8
293.15	0.3892	1135.24	0.78
293.15	0.4277	1121.2	0.78
293.15	0.5444	1083.57	0.76
293.15	0.6405	1057.41	0.76
293.15	0.7326	1036.51	0.75
293.15	0.8519	1016.83	0.74
293.15	0.9273	1009.94	0.74
293.15	0.9587	1008.3	0.74
293.15	0.9782	1007.43	0.74
293.15	1	1007.04	0.74
298.15	0	1303.19	0.83
298.15	0.0402	1279.95	0.83
298.15	0.0682	1264.36	0.82
298.15	0.1276	1233.06	0.81
298.15	0.2056	1195.28	0.8
298.15	0.2686	1167.33	0.79
298.15	0.3892	1120.21	0.78
298.15	0.4277	1106.34	0.77
298.15	0.5444	1069.22	0.76
298.15	0.6405	1043.59	0.75
298.15	0.7326	1023.12	0.75
298.15	0.8519	1003.95	0.74
298.15	0.9273	997.38	0.74
298.15	0.9587	995.92	0.74
298.15	0.9782	994.76	0.74
298.15	1	994.27	0.74

System: 1,2-dibromoethane + hexan-1-ol; phases: Liquid
Fixed: Pressure, kPa = 101
Property: Mass density, kg/m3 (Liquid); method: VIBTUB:UFactor:4
Temperature, K	Mole fraction of 1,2-dibromoethane	Mass density, kg/m3	uncertainty
293.15	0	818.856	0.44
293.15	0.0402	856.608	0.428
293.15	0.0682	883.413	0.396
293.15	0.1276	941.916	0.328
293.15	0.2056	1022.358	0.297
293.15	0.2686	1090.467	0.395
293.15	0.3892	1228.973	0.603
293.15	0.4277	1276.432	0.686
293.15	0.5444	1427.131	0.931
293.15	0.6405	1561.996	1.16
293.15	0.7326	1701.636	1.401
293.15	0.8519	1899.692	1.742
293.15	0.9273	2036.524	1.983
293.15	0.9587	2096.509	2.091
293.15	0.9782	2135.291	2.161
293.15	1	2179.591	2.202
298.15	0	815.281	0.445
298.15	0.0402	852.83	0.433
298.15	0.0682	879.495	0.401
298.15	0.1276	937.69	0.332
298.15	0.2056	1017.704	0.291
298.15	0.2686	1085.45	0.387
298.15	0.3892	1223.201	0.593
298.15	0.4277	1270.414	0.676
298.15	0.5444	1420.311	0.92
298.15	0.6405	1554.455	1.147
298.15	0.7326	1693.371	1.386
298.15	0.8519	1890.444	1.726
298.15	0.9273	2026.658	1.966
298.15	0.9587	2086.396	2.073
298.15	0.9782	2125.016	2.143
298.15	1	2169.137	2.184

System: hexan-1-ol + tetrachloroethene; phases: Liquid
Fixed: Pressure, kPa = 101
Property: Speed of sound, m/s (Liquid); method: Sing-around technique in a fixed-path interferometer
Temperature, K	Mole fraction of tetrachloroethene	Speed of sound, m/s	uncertainty
293.15	0	1320.11	0.83
293.15	0.0688	1292.01	0.83
293.15	0.123	1270.77	0.82
293.15	0.2457	1226.29	0.81
293.15	0.3618	1188.18	0.8
293.15	0.4502	1161.45	0.79
293.15	0.5583	1131.51	0.78
293.15	0.6518	1108.26	0.77
293.15	0.7068	1095.82	0.77
293.15	0.7419	1088.42	0.76
293.15	0.7797	1080.88	0.76
293.15	0.8315	1071.36	0.76
293.15	0.8718	1064.7	0.76
293.15	0.9179	1058.21	0.75
293.15	0.9504	1054.99	0.75
293.15	1	1054.03	0.75
298.15	0	1303.19	0.83
298.15	0.0688	1274.52	0.82
298.15	0.123	1253.65	0.82
298.15	0.2457	1209.55	0.8
298.15	0.3618	1171.56	0.79
298.15	0.4502	1144.91	0.78
298.15	0.5583	1115.12	0.77
298.15	0.6518	1092.04	0.77
298.15	0.7068	1079.52	0.76
298.15	0.7419	1072.05	0.76
298.15	0.7797	1064.57	0.76
298.15	0.8315	1055.64	0.75
298.15	0.8718	1049.01	0.75
298.15	0.9179	1043.31	0.75
298.15	0.9504	1041.16	0.75
298.15	1	1038.97	0.75

System: hexan-1-ol + tetrachloroethene; phases: Liquid
Fixed: Pressure, kPa = 101
Property: Mass density, kg/m3 (Liquid); method: VIBTUB:UFactor:4
Temperature, K	Mole fraction of tetrachloroethene	Mass density, kg/m3	uncertainty
293.15	0	818.856	0.44
293.15	0.0688	864.637	0.396
293.15	0.123	901.521	0.347
293.15	0.2457	987.759	0.239
293.15	0.3618	1072.992	0.33
293.15	0.4502	1140.457	0.436
293.15	0.5583	1226.302	0.575
293.15	0.6518	1303.622	0.702
293.15	0.7068	1350.534	0.781
293.15	0.7419	1381.185	0.833
293.15	0.7797	1414.647	0.889
293.15	0.8315	1461.437	0.968
293.15	0.8718	1498.8	1.031
293.15	0.9179	1542.246	1.105
293.15	0.9504	1573.609	1.159
293.15	1	1622.745	1.227
298.15	0	815.281	0.445
298.15	0.0688	860.792	0.401
298.15	0.123	897.46	0.352
298.15	0.2457	983.18	0.244
298.15	0.3618	1067.892	0.322
298.15	0.4502	1134.94	0.427
298.15	0.5583	1220.256	0.565
298.15	0.6518	1297.102	0.691
298.15	0.7068	1343.732	0.769
298.15	0.7419	1374.186	0.821
298.15	0.7797	1407.46	0.877
298.15	0.8315	1453.969	0.955
298.15	0.8718	1491.149	1.018
298.15	0.9179	1534.331	1.092
298.15	0.9504	1565.562	1.146
298.15	1	1614.427	1.213
