Measured thermophysical data. Viscosity of Alternative Refrigerants R407C and R407E in the Vapor Phase from 298.15 to 423.15K
Source: Int. J. Thermophys., 2006, 10.1007/s10765-006-0052-3
Compound 1: difluoromethane, CH2F2, InChI=1S/CH2F2/c2-1-3/h1H2, purity 99.9%
Compound 2: pentafluoroethane, C2HF5, InChI=1S/C2HF5/c3-1(4)2(5,6)7/h1H, purity 99.9%
Compound 3: 1,1,1-trifluoroethane, C2H3F3, InChI=1S/C2H3F3/c1-2(3,4)5/h1H3, purity 99.9%

System: difluoromethane + pentafluoroethane + 1,1,1-trifluoroethane; phases: Gas
Fixed: Mass fraction of difluoromethane = 0.23
Fixed: Mass fraction of pentafluoroethane = 0.25
Property: Viscosity, Pa*s (Gas); method: Oscillating disk viscometry
Temperature, K	Pressure, kPa	Viscosity, Pa*s	uncertainty
298.15	101.8	1.22e-05	4.4e-07
298.15	102.4	1.219e-05	4.4e-07
298.15	202.1	1.216e-05	4.4e-07
298.15	289	1.212e-05	4.4e-07
298.15	386.5	1.215e-05	4.4e-07
298.15	466.6	1.21e-05	4.4e-07
298.15	568.9	1.207e-05	4.4e-07
298.15	663.8	1.211e-05	4.4e-07
298.15	761.4	1.205e-05	4.3e-07
298.15	864.3	1.208e-05	4.4e-07
298.15	967.5	1.207e-05	4.4e-07
323.15	102	1.321e-05	4.6e-07
323.15	104.7	1.317e-05	4.6e-07
323.15	220.6	1.315e-05	4.6e-07
323.15	305.7	1.316e-05	4.6e-07
323.15	406.3	1.315e-05	4.6e-07
323.15	510.1	1.312e-05	4.6e-07
323.15	602.6	1.315e-05	4.6e-07
323.15	747.7	1.311e-05	4.6e-07
323.15	897	1.315e-05	4.6e-07
323.15	1024.9	1.321e-05	4.6e-07
323.15	1189.9	1.321e-05	4.6e-07
323.15	1340.1	1.327e-05	4.6e-07
323.15	1493.7	1.331e-05	4.6e-07
323.15	1594.7	1.336e-05	4.7e-07
323.15	1689.9	1.341e-05	4.7e-07
323.15	1783.9	1.348e-05	4.7e-07
323.15	1883.3	1.354e-05	4.7e-07
348.15	100.1	1.416e-05	4.8e-07
348.15	101.7	1.424e-05	4.9e-07
348.15	232.5	1.423e-05	4.9e-07
348.15	367.5	1.424e-05	4.9e-07
348.15	539.5	1.425e-05	4.9e-07
348.15	744.6	1.427e-05	4.9e-07
348.15	932.5	1.43e-05	4.9e-07
348.15	1123	1.429e-05	4.9e-07
348.15	1323	1.439e-05	4.9e-07
348.15	1521	1.447e-05	4.9e-07
348.15	1720	1.454e-05	4.9e-07
348.15	1904	1.465e-05	5e-07
348.15	2098	1.475e-05	5e-07
348.15	2256	1.492e-05	5e-07
348.15	2432	1.499e-05	5e-07
348.15	2587	1.518e-05	5.1e-07
348.15	2693	1.528e-05	5.1e-07
348.15	2875	1.55e-05	5.2e-07
373.15	100.3	1.524e-05	5.1e-07
373.15	103.4	1.531e-05	5.1e-07
373.15	291.1	1.54e-05	5.1e-07
373.15	543.8	1.543e-05	5.1e-07
373.15	780.5	1.546e-05	5.1e-07
373.15	1027	1.547e-05	5.1e-07
373.15	1273	1.552e-05	5.2e-07
373.15	1525	1.565e-05	5.2e-07
373.15	1814	1.576e-05	5.2e-07
373.15	2112	1.591e-05	5.2e-07
373.15	2400	1.608e-05	5.3e-07
373.15	2678	1.633e-05	5.3e-07
373.15	3019	1.666e-05	5.4e-07
373.15	3306	1.695e-05	5.5e-07
373.15	3576	1.731e-05	5.6e-07
373.15	3955	1.8e-05	5.7e-07
373.15	4212	1.854e-05	5.9e-07
373.15	4397	1.905e-05	6e-07
373.15	4703	2.001e-05	6.2e-07
373.15	4937	2.107e-05	6.4e-07
373.15	5115	2.213e-05	6.7e-07
373.15	5269	2.325e-05	7e-07
398.15	100.9	1.62e-05	5.3e-07
398.15	101.8	1.63e-05	5.3e-07
398.15	291.2	1.631e-05	5.3e-07
398.15	487.3	1.635e-05	5.3e-07
398.15	679.3	1.64e-05	5.4e-07
398.15	975.1	1.643e-05	5.4e-07
398.15	1267	1.65e-05	5.4e-07
398.15	1536	1.66e-05	5.4e-07
398.15	1828	1.672e-05	5.4e-07
398.15	2062	1.678e-05	5.4e-07
398.15	2377	1.692e-05	5.5e-07
398.15	2686	1.71e-05	5.5e-07
398.15	3024	1.739e-05	5.6e-07
398.15	3408	1.77e-05	5.7e-07
398.15	3700	1.798e-05	5.7e-07
398.15	4014	1.832e-05	5.8e-07
398.15	4400	1.884e-05	5.9e-07
398.15	4654	1.926e-05	6e-07
398.15	4898	1.965e-05	6.1e-07
398.15	5194	2.021e-05	6.2e-07
398.15	5446	2.074e-05	6.4e-07
398.15	5643	2.126e-05	6.5e-07
398.15	5829	2.173e-05	6.6e-07
398.15	6027	2.23e-05	6.7e-07
398.15	6252	2.299e-05	6.9e-07
398.15	6435	2.364e-05	7e-07
398.15	6591	2.431e-05	7.2e-07
423.15	100.8	1.723e-05	5.6e-07
423.15	101.6	1.725e-05	5.6e-07
423.15	227.9	1.727e-05	5.6e-07
423.15	405.5	1.726e-05	5.6e-07
423.15	709.3	1.731e-05	5.6e-07
423.15	1113	1.74e-05	5.6e-07
423.15	1498	1.754e-05	5.6e-07
423.15	1892	1.765e-05	5.7e-07
423.15	2265	1.78e-05	5.7e-07
423.15	2630	1.8e-05	5.7e-07
423.15	3115	1.83e-05	5.8e-07
423.15	3488	1.853e-05	5.9e-07
423.15	3815	1.882e-05	5.9e-07
423.15	4220	1.918e-05	6e-07
423.15	4602	1.957e-05	6.1e-07
423.15	4950	1.998e-05	6.2e-07
423.15	5249	2.035e-05	6.3e-07
423.15	5527	2.075e-05	6.4e-07
423.15	5973	2.14e-05	6.5e-07
423.15	6298	2.195e-05	6.7e-07
423.15	6628	2.255e-05	6.8e-07
423.15	6920	2.317e-05	6.9e-07
423.15	7206	2.379e-05	7.1e-07
423.15	7505	2.448e-05	7.2e-07
423.15	7690	2.508e-05	7.4e-07

System: difluoromethane + pentafluoroethane + 1,1,1-trifluoroethane; phases: Gas
Fixed: Mass fraction of difluoromethane = 0.25
Fixed: Mass fraction of pentafluoroethane = 0.15
Property: Viscosity, Pa*s (Gas); method: Oscillating disk viscometry
Temperature, K	Pressure, kPa	Viscosity, Pa*s	uncertainty
298.15	102	1.214e-05	4.4e-07
298.15	200	1.208e-05	4.4e-07
298.15	295.4	1.207e-05	4.4e-07
298.15	489.6	1.206e-05	4.4e-07
298.15	593.9	1.198e-05	4.3e-07
298.15	694	1.203e-05	4.3e-07
298.15	791.3	1.201e-05	4.3e-07
298.15	897.4	1.199e-05	4.3e-07
323.15	102.5	1.311e-05	4.6e-07
323.15	102.9	1.304e-05	4.6e-07
323.15	200.6	1.306e-05	4.6e-07
323.15	298.7	1.305e-05	4.6e-07
323.15	391.9	1.304e-05	4.6e-07
323.15	542.6	1.306e-05	4.6e-07
323.15	693.3	1.308e-05	4.6e-07
323.15	865.5	1.306e-05	4.6e-07
323.15	998.2	1.311e-05	4.6e-07
323.15	1160	1.313e-05	4.6e-07
323.15	1297	1.315e-05	4.6e-07
323.15	1451	1.32e-05	4.6e-07
323.15	1602	1.326e-05	4.6e-07
323.15	1743	1.334e-05	4.6e-07
323.15	1859	1.343e-05	4.7e-07
348.15	101	1.409e-05	4.8e-07
348.15	101.6	1.409e-05	4.8e-07
348.15	197.3	1.41e-05	4.8e-07
348.15	318.7	1.408e-05	4.8e-07
348.15	461.4	1.408e-05	4.8e-07
348.15	621.5	1.409e-05	4.8e-07
348.15	770.3	1.413e-05	4.8e-07
348.15	927.7	1.415e-05	4.8e-07
348.15	1075	1.416e-05	4.8e-07
348.15	1226	1.42e-05	4.8e-07
348.15	1375	1.426e-05	4.9e-07
348.15	1534	1.428e-05	4.9e-07
348.15	1691	1.433e-05	4.9e-07
348.15	1843	1.443e-05	4.9e-07
348.15	1987	1.451e-05	4.9e-07
348.15	2137	1.459e-05	4.9e-07
348.15	2277	1.47e-05	5e-07
348.15	2430	1.486e-05	5e-07
348.15	2597	1.5e-05	5e-07
348.15	2763	1.525e-05	5.1e-07
348.15	2971	1.558e-05	5.2e-07
348.15	3109	1.586e-05	5.2e-07
348.15	3205	1.611e-05	5.3e-07
373.15	101.1	1.505e-05	5e-07
373.15	104.3	1.509e-05	5.1e-07
373.15	247.9	1.506e-05	5e-07
373.15	403.8	1.509e-05	5.1e-07
373.15	610.1	1.512e-05	5.1e-07
373.15	806.3	1.515e-05	5.1e-07
373.15	1017	1.518e-05	5.1e-07
373.15	1382	1.528e-05	5.1e-07
373.15	1576	1.535e-05	5.1e-07
373.15	1782	1.541e-05	5.1e-07
373.15	1994	1.549e-05	5.1e-07
373.15	2188	1.562e-05	5.2e-07
373.15	2460	1.579e-05	5.2e-07
373.15	2657	1.595e-05	5.3e-07
373.15	2939	1.619e-05	5.3e-07
373.15	3208	1.647e-05	5.4e-07
373.15	3424	1.676e-05	5.4e-07
373.15	3645	1.709e-05	5.5e-07
373.15	3840	1.741e-05	5.6e-07
373.15	4048	1.786e-05	5.7e-07
373.15	4265	1.841e-05	5.8e-07
373.15	4420	1.884e-05	5.9e-07
373.15	4656	1.971e-05	6.1e-07
373.15	4826	2.054e-05	6.3e-07
373.15	4983	2.154e-05	6.6e-07
373.15	5082	2.236e-05	6.7e-07
398.15	100.8	1.607e-05	5.3e-07
398.15	421.5	1.609e-05	5.3e-07
398.15	731.2	1.616e-05	5.3e-07
398.15	1073	1.621e-05	5.3e-07
398.15	1456	1.633e-05	5.3e-07
398.15	1776	1.64e-05	5.4e-07
398.15	2067	1.653e-05	5.4e-07
398.15	2381	1.665e-05	5.4e-07
398.15	2629	1.679e-05	5.5e-07
398.15	2935	1.703e-05	5.5e-07
398.15	3228	1.724e-05	5.6e-07
398.15	3437	1.746e-05	5.6e-07
398.15	3691	1.768e-05	5.7e-07
398.15	3941	1.795e-05	5.7e-07
398.15	4224	1.829e-05	5.8e-07
398.15	4424	1.858e-05	5.9e-07
398.15	4688	1.894e-05	6e-07
398.15	4895	1.931e-05	6e-07
398.15	5097	1.971e-05	6.1e-07
398.15	5256	2.006e-05	6.2e-07
398.15	5507	2.062e-05	6.3e-07
398.15	5697	2.106e-05	6.4e-07
398.15	5813	2.147e-05	6.5e-07
398.15	5906	2.174e-05	6.6e-07
398.15	5998	2.201e-05	6.7e-07
423.15	101.1	1.716e-05	5.5e-07
423.15	421.7	1.72e-05	5.5e-07
423.15	741.5	1.723e-05	5.6e-07
423.15	1075	1.736e-05	5.6e-07
423.15	1461	1.743e-05	5.6e-07
423.15	1756	1.756e-05	5.6e-07
423.15	2060	1.768e-05	5.7e-07
423.15	2429	1.787e-05	5.7e-07
423.15	2826	1.803e-05	5.7e-07
423.15	3202	1.826e-05	5.8e-07
423.15	3468	1.854e-05	5.9e-07
423.15	3922	1.884e-05	5.9e-07
423.15	4302	1.914e-05	6e-07
423.15	4741	1.954e-05	6.1e-07
423.15	5351	2.037e-05	6.3e-07
423.15	5684	2.083e-05	6.4e-07
423.15	6030	2.139e-05	6.5e-07
423.15	6383	2.203e-05	6.7e-07
423.15	6655	2.249e-05	6.8e-07
423.15	7236	2.38e-05	7.1e-07
423.15	7487	2.434e-05	7.2e-07
