Measured thermophysical data. Temperature and Pressure Dependence of the Volumetric Properties of Binary Liquid Mixtures Containing Dihaloalkanes
Source: Int. J. Thermophys., 2005, 10.1007/s10765-005-5570-x
Compound 1: ethyl acetate, C4H8O2, InChI=1S/C4H8O2/c1-3-6-4(2)5/h3H2,1-2H3, purity 99.5%
Compound 2: dibromomethane, CH2Br2, InChI=1S/CH2Br2/c2-1-3/h1H2, purity 98.5%
Compound 3: bromochloromethane, CH2BrCl, InChI=1S/CH2BrCl/c2-1-3/h1H2, purity 99%
Compound 4: 1,2-dichloroethane, C2H4Cl2, InChI=1S/C2H4Cl2/c3-1-2-4/h1-2H2, purity 99.5%
Compound 5: 1-bromo-2-chloroethane, C2H4BrCl, InChI=1S/C2H4BrCl/c3-1-2-4/h1-2H2, purity 98%

System: ethyl acetate; phases: Liquid
Fixed: Temperature, K = 298.15
Property: Mass density, kg/m3 (Liquid); method: VIBTUB:UFactor:4
Pressure, kPa	Mass density, kg/m3	uncertainty
200	894.2	0.37
600	894.65	0.37
1100	895.18	0.38
2100	896.14	0.39
2900	897.1	0.4
4000	898.2	0.41
5100	899.22	0.43
6000	900.19	0.44
7000	901.11	0.45
8000	902.12	0.46
8900	902.88	0.47
9900	903.88	0.48
11700	905.54	0.5
13800	907.54	0.52
16000	909.45	0.54
17600	910.84	0.56
19500	912.59	0.57

System: ethyl acetate; phases: Liquid
Fixed: Pressure, kPa = 101.325
Property: Mass density, kg/m3 (Liquid); method: VIBTUB:UFactor:6
Temperature, K	Mass density, kg/m3	uncertainty
288.15	906.71	0.47
298.15	894.97	0.49
308.15	882.27	0.51
308.15	881.87	0.51

System: dibromomethane; phases: Liquid
Fixed: Temperature, K = 298.15
Property: Mass density, kg/m3 (Liquid); method: VIBTUB:UFactor:4
Pressure, kPa	Mass density, kg/m3	uncertainty
200	2477.56	3.1
300	2477.92	3.12
600	2478.35	3.17
1000	2478.9	3.25
2100	2480.41	3.46
3000	2481.88	3.64
4100	2483.5	3.86
5000	2484.84	4.04
5900	2486.26	4.23
6900	2487.82	4.44
8000	2489.54	4.68
8800	2490.92	4.85
9800	2492.58	5.07
11800	2494.98	5.51
13700	2498.59	5.94
15800	2502.33	6.42
15900	2502.49	6.44
17700	2505.74	6.86
19200	2508.69	7.21
19300	2508.84	7.23

System: dibromomethane; phases: Liquid
Fixed: Pressure, kPa = 101.325
Property: Mass density, kg/m3 (Liquid); method: VIBTUB:UFactor:6
Temperature, K	Mass density, kg/m3	uncertainty
288.15	2501.88	4.17
298.15	2478.37	4.11
308.15	2451.74	4.05

System: bromochloromethane; phases: Liquid
Fixed: Temperature, K = 298.15
Property: Mass density, kg/m3 (Liquid); method: VIBTUB:UFactor:4
Pressure, kPa	Mass density, kg/m3	uncertainty
200	1923.54	1.86
500	1923.88	1.9
1000	1924.64	1.96
2100	1926.24	2.1
2900	1927.62	2.2
3800	1928.77	2.32
4900	1930.51	2.47
5900	1932.03	2.61
7000	1933.43	2.76
8000	1934.88	2.9
8800	1936.36	3.01
9800	1937.83	3.16
11800	1940.79	3.44
13900	1944.25	3.75
15700	1947.01	4.02
17800	1950.26	4.33
19600	1953.16	4.6

System: bromochloromethane; phases: Liquid
Fixed: Pressure, kPa = 101.325
Property: Mass density, kg/m3 (Liquid); method: VIBTUB:UFactor:6
Temperature, K	Mass density, kg/m3	uncertainty
288.15	1945.94	2.6
298.15	1924.88	2.55
308.15	1900.86	2.49

System: 1,2-dichloroethane; phases: Liquid
Fixed: Temperature, K = 298.15
Property: Mass density, kg/m3 (Liquid); method: VIBTUB:UFactor:4
Pressure, kPa	Mass density, kg/m3	uncertainty
200	1245.68	0.6
500	1246.02	0.61
1100	1246.54	0.63
2000	1247.41	0.66
3100	1248.51	0.7
4100	1249.53	0.74
5100	1250.32	0.78
6100	1251.22	0.81
7100	1252.27	0.85
8000	1253.07	0.89
8900	1254	0.92
10100	1255.18	0.97
12000	1256.96	1.05
13900	1258.84	1.13
15700	1260.48	1.2
17700	1262.37	1.29
19700	1264.29	1.38

System: 1,2-dichloroethane; phases: Liquid
Fixed: Pressure, kPa = 101.325
Property: Mass density, kg/m3 (Liquid); method: VIBTUB:UFactor:6
Temperature, K	Mass density, kg/m3	uncertainty
288.15	1260.13	0.86
298.15	1246.59	0.83
308.15	1231.27	0.79

System: 1-bromo-2-chloroethane; phases: Liquid
Fixed: Temperature, K = 298.15
Property: Mass density, kg/m3 (Liquid); method: VIBTUB:UFactor:4
Pressure, kPa	Mass density, kg/m3	uncertainty
200	1726.08	2.17
500	1726.48	2.19
900	1726.94	2.22
2000	1728.17	2.3
2900	1729.14	2.37
4100	1730.57	2.47
4800	1731.35	2.52
6000	1732.77	2.63
6800	1733.74	2.7
8000	1735.1	2.8
8700	1736.13	2.87
9600	1737.17	2.95
11700	1739.6	3.16
13900	1742.49	3.38
15600	1744.52	3.55
17600	1747.12	3.77
19400	1749.48	3.96

System: 1-bromo-2-chloroethane; phases: Liquid
Fixed: Pressure, kPa = 101.325
Property: Mass density, kg/m3 (Liquid); method: VIBTUB:UFactor:6
Temperature, K	Mass density, kg/m3	uncertainty
288.15	1744.36	2.63
298.15	1727.88	2.59
308.15	1708.86	2.54

System: dibromomethane + ethyl acetate; phases: Liquid
Property: Mass density, kg/m3 (Liquid); method: VIBTUB:UFactor:6
Pressure, kPa	Temperature, K	Mole fraction of dibromomethane	Mass density, kg/m3	uncertainty
101.325	288.15	0	906.71	0.47
101.325	288.15	0.0522	966.58	0.38
101.325	288.15	0.2014	1147.77	0.67
101.325	288.15	0.3006	1277.79	0.98
101.325	288.15	0.4028	1419.89	1.34
101.325	288.15	0.4852	1542.09	1.65
101.325	288.15	0.6012	1725.96	2.12
101.325	288.15	0.7001	1895.61	2.56
101.325	288.15	0.8077	2095.3	3.09
101.325	288.15	0.8997	2281.45	3.58
101.325	288.15	1	2501.88	4.17
101.325	298.15	0	894.97	0.49
101.325	298.15	0.0522	954.36	0.4
101.325	298.15	0.2014	1133.83	0.64
101.325	298.15	0.3006	1262.61	0.95
101.325	298.15	0.4028	1404.06	1.3
101.325	298.15	0.4852	1525	1.61
101.325	298.15	0.6012	1707.9	2.08
101.325	298.15	0.7001	1876.1	2.52
101.325	298.15	0.8077	2074.59	3.04
101.325	298.15	0.8997	2259.57	3.53
101.325	298.15	1	2478.37	4.11
101.325	308.15	0	882.27	0.51
101.325	308.15	0.0522	940.97	0.42
101.325	308.15	0.2014	1118.5	0.61
101.325	308.15	0.3006	1245.98	0.91
101.325	308.15	0.4028	1385.7	1.26
101.325	308.15	0.4852	1505.67	1.56
101.325	308.15	0.6012	1686.98	2.03
101.325	308.15	0.7001	1854.24	2.46
101.325	308.15	0.8077	2050.67	2.98
101.325	308.15	0.8997	2234.29	3.47
101.325	308.15	1	2451.74	4.05
200	298.15	0.2995	1260.2	0.95
200	298.15	0.5013	1549.45	1.68
200	298.15	0.6994	1874.05	2.53
500	298.15	0.2995	1260.63	0.97
600	298.15	0.5013	1550.03	1.73
600	298.15	0.6994	1874.73	2.6
1100	298.15	0.2995	1261.34	1
1100	298.15	0.5013	1550.84	1.79
1200	298.15	0.6994	1875.51	2.72
1900	298.15	0.5013	1551.83	1.88
2100	298.15	0.2995	1262.47	1.06
2200	298.15	0.6994	1876.85	2.91
2900	298.15	0.2995	1263.67	1.1
2900	298.15	0.5013	1553.29	2.01
2900	298.15	0.6994	1878.02	3.04
3700	298.15	0.2995	1264.58	1.15
3900	298.15	0.5013	1554.65	2.13
4200	298.15	0.6994	1879.75	3.29
4700	298.15	0.5013	1555.68	2.23
4800	298.15	0.2995	1265.79	1.21
5200	298.15	0.6994	1881.21	3.49
5900	298.15	0.2995	1267.24	1.28
6000	298.15	0.5013	1557.43	2.39
6000	298.15	0.6994	1882.25	3.65
6700	298.15	0.5013	1558.4	2.48
6800	298.15	0.2995	1268.29	1.34
7000	298.15	0.6994	1883.78	3.85
7900	298.15	0.5013	1560	2.64
8000	298.15	0.2995	1269.58	1.41
8100	298.15	0.6994	1885.33	4.07
8600	298.15	0.5013	1561.02	2.73
8900	298.15	0.2995	1270.84	1.47
9100	298.15	0.6994	1887	4.28
9800	298.15	0.2995	1271.89	1.53
10000	298.15	0.5013	1562.92	2.91
10000	298.15	0.6994	1888.23	4.46
10400	298.15	0.6994	1888.73	4.55
12000	298.15	0.5013	1565.67	3.18
12100	298.15	0.2995	1274.55	1.68
12300	298.15	0.6994	1891.62	4.94
13800	298.15	0.5013	1568.24	3.42
14000	298.15	0.2995	1276.89	1.81
14000	298.15	0.6994	1894.37	5.3
15800	298.15	0.2995	1278.96	1.93
15800	298.15	0.5013	1570.87	3.7
15900	298.15	0.6994	1897.08	5.7
17600	298.15	0.5013	1573.34	3.94
17800	298.15	0.6994	1900.02	6.11
17900	298.15	0.2995	1281.5	2.08
19800	298.15	0.5013	1576.4	4.25
19800	298.15	0.6994	1903.09	6.54
20100	298.15	0.2995	1284.19	2.23

System: bromochloromethane + ethyl acetate; phases: Liquid
Property: Mass density, kg/m3 (Liquid); method: VIBTUB:UFactor:6
Pressure, kPa	Temperature, K	Mole fraction of bromochloromethane	Mass density, kg/m3	uncertainty
101.325	288.15	0	906.71	0.47
101.325	288.15	0.0961	976.08	0.36
101.325	288.15	0.2333	1083.23	0.51
101.325	288.15	0.3083	1145.77	0.65
101.325	288.15	0.4015	1228.4	0.84
101.325	288.15	0.5004	1322.97	1.07
101.325	288.15	0.604	1430.45	1.33
101.325	288.15	0.7004	1538.94	1.59
101.325	288.15	0.7987	1659.96	1.89
101.325	288.15	0.9032	1800.66	2.24
101.325	288.15	1	1945.94	2.6
101.325	298.15	0	894.97	0.49
101.325	298.15	0.0961	963.62	0.38
101.325	298.15	0.2333	1069.74	0.48
101.325	298.15	0.3083	1131.77	0.62
101.325	298.15	0.4015	1213.84	0.81
101.325	298.15	0.5004	1308.02	1.04
101.325	298.15	0.604	1414.77	1.29
101.325	298.15	0.7004	1522.14	1.56
101.325	298.15	0.7987	1641.51	1.85
101.325	298.15	0.9032	1780.71	2.19
101.325	298.15	1	1924.88	2.55
101.325	308.15	0	881.87	0.51
101.325	308.15	0.0961	949.99	0.4
101.325	308.15	0.2333	1054.79	0.46
101.325	308.15	0.3083	1116.41	0.59
101.325	308.15	0.4015	1197.33	0.78
101.325	308.15	0.5004	1290.38	1
101.325	308.15	0.604	1396.09	1.25
101.325	308.15	0.7004	1502.46	1.51
101.325	308.15	0.7987	1620.66	1.8
101.325	308.15	0.9032	1758.33	2.14
101.325	308.15	1	1900.86	2.49
200	298.15	0.2995	1118.5	0.59
200	298.15	0.5013	1299.53	1.02
200	298.15	0.6994	1514.36	1.55
600	298.15	0.2995	1119.03	0.6
600	298.15	0.5013	1300.17	1.05
700	298.15	0.6994	1515.04	1.6
1100	298.15	0.2995	1119.69	0.62
1200	298.15	0.5013	1300.97	1.09
1200	298.15	0.6994	1515.77	1.66
1900	298.15	0.6994	1516.63	1.74
2000	298.15	0.2995	1120.79	0.64
2100	298.15	0.5013	1301.96	1.15
3000	298.15	0.5013	1303.21	1.21
3100	298.15	0.2995	1121.97	0.67
3100	298.15	0.6994	1518.35	1.88
4000	298.15	0.2995	1123.04	0.69
4000	298.15	0.5013	1304.49	1.28
4000	298.15	0.6994	1519.64	1.99
4900	298.15	0.5013	1305.64	1.34
5100	298.15	0.2995	1124.32	0.72
5100	298.15	0.6994	1521.08	2.12
5800	298.15	0.6994	1522.03	2.2
6000	298.15	0.5013	1306.93	1.42
6100	298.15	0.2995	1125.53	0.75
6800	298.15	0.6994	1523.33	2.32
6900	298.15	0.2995	1126.38	0.78
7000	298.15	0.5013	1308.07	1.49
7800	298.15	0.5013	1309.22	1.55
7900	298.15	0.2995	1127.44	0.81
7900	298.15	0.6994	1524.7	2.46
8700	298.15	0.6994	1525.86	2.56
8800	298.15	0.5013	1310.44	1.62
9000	298.15	0.2995	1128.74	0.84
9800	298.15	0.5013	1311.74	1.7
9800	298.15	0.6994	1527.42	2.69
9900	298.15	0.2995	1129.86	0.87
11800	298.15	0.2995	1131.84	0.93
11900	298.15	0.6994	1530.29	2.96
12100	298.15	0.5013	1314.57	1.87
13800	298.15	0.2995	1134.16	1
13800	298.15	0.6994	1532.98	3.2
13900	298.15	0.5013	1316.83	2.01
15700	298.15	0.2995	1136.18	1.07
15900	298.15	0.5013	1319.23	2.17
15900	298.15	0.6994	1535.7	3.47
17600	298.15	0.5013	1321.38	2.3
17700	298.15	0.2995	1138.39	1.14
17700	298.15	0.6994	1538.2	3.71
19200	298.15	0.6994	1540.32	3.91
19400	298.15	0.6994	1540.59	3.94
19900	298.15	0.5013	1324.19	2.49
20000	298.15	0.2995	1140.92	1.23

System: 1,2-dichloroethane + ethyl acetate; phases: Liquid
Property: Mass density, kg/m3 (Liquid); method: VIBTUB:UFactor:6
Pressure, kPa	Temperature, K	Mole fraction of 1,2-dichloroethane	Mass density, kg/m3	uncertainty
101.325	288.15	0	906.71	0.47
101.325	288.15	0.1036	936.39	0.41
101.325	288.15	0.2054	966.98	0.36
101.325	288.15	0.3019	996.99	0.32
101.325	288.15	0.4003	1028.99	0.36
101.325	288.15	0.4963	1061.48	0.43
101.325	288.15	0.602	1098.83	0.5
101.325	288.15	0.682	1128.5	0.6
101.325	288.15	0.8002	1174.96	0.67
101.325	288.15	0.9001	1216.19	0.76
101.325	288.15	1	1260.13	0.86
101.325	298.15	0	894.97	0.49
101.325	298.15	0.1036	924.54	0.43
101.325	298.15	0.2054	954.82	0.38
101.325	298.15	0.3019	984.84	0.33
101.325	298.15	0.4003	1016.64	0.34
101.325	298.15	0.4963	1048.95	0.4
101.325	298.15	0.602	1086.09	0.48
101.325	298.15	0.682	1115.64	0.54
101.325	298.15	0.8002	1161.78	0.64
101.325	298.15	0.9001	1202.79	0.73
101.325	298.15	1	1246.59	0.83
101.325	308.15	0	882.27	0.51
101.325	308.15	0.1036	911.53	0.46
101.325	308.15	0.2054	941.7	0.4
101.325	308.15	0.3019	971.32	0.35
101.325	308.15	0.4003	1002.93	0.32
101.325	308.15	0.4963	1035.07	0.38
101.325	308.15	0.602	1071.98	0.45
101.325	308.15	0.682	1101.3	0.51
101.325	308.15	0.8002	1147.08	0.61
101.325	308.15	0.9001	1187.86	0.7
101.325	308.15	1	1231.27	0.79
200	298.15	0.2995	983.88	0.34
200	298.15	0.5013	1046.97	0.4
200	298.15	0.6994	1120.18	0.55
500	298.15	0.2995	984.27	0.34
600	298.15	0.5013	1047.36	0.4
600	298.15	0.6994	1120.72	0.56
1100	298.15	0.5013	1047.97	0.41
1200	298.15	0.2995	985.01	0.34
1200	298.15	0.6994	1121.21	0.58
2100	298.15	0.5013	1049.05	0.42
2100	298.15	0.6994	1122.19	0.6
2300	298.15	0.2995	986.02	0.34
2900	298.15	0.2995	986.78	0.34
3000	298.15	0.6994	1122.99	0.63
3200	298.15	0.5013	1050.04	0.43
3900	298.15	0.5013	1050.82	0.44
4000	298.15	0.2995	987.78	0.34
4000	298.15	0.6994	1124.04	0.65
4800	298.15	0.5013	1051.57	0.45
4800	298.15	0.6994	1124.91	0.68
5000	298.15	0.2995	988.82	0.34
5900	298.15	0.2995	989.64	0.34
6100	298.15	0.5013	1052.93	0.47
6100	298.15	0.6994	1126.11	0.72
6900	298.15	0.2995	990.62	0.34
7000	298.15	0.6994	1126.84	0.74
7100	298.15	0.5013	1053.82	0.48
7800	298.15	0.2995	991.51	0.33
7800	298.15	0.5013	1054.57	0.49
8000	298.15	0.6994	1127.94	0.78
8600	298.15	0.2995	992.31	0.33
8800	298.15	0.6994	1128.76	0.8
9000	298.15	0.5013	1055.76	0.51
9800	298.15	0.5013	1056.47	0.52
9900	298.15	0.2995	993.71	0.33
9900	298.15	0.6994	1129.84	0.84
11700	298.15	0.2995	995.34	0.33
11900	298.15	0.5013	1058.45	0.55
12000	298.15	0.6994	1131.77	0.91
13700	298.15	0.6994	1133.5	0.96
13800	298.15	0.2995	997.35	0.32
13800	298.15	0.5013	1060.29	0.58
15600	298.15	0.6994	1135.23	1.03
15900	298.15	0.2995	999.26	0.32
15900	298.15	0.5013	1062.3	0.62
17700	298.15	0.6994	1137.32	1.11
17900	298.15	0.2995	1001.14	0.32
18000	298.15	0.5013	1064.25	0.66
19400	298.15	0.2995	1002.51	0.33
19600	298.15	0.6994	1139.1	1.18
19900	298.15	0.5013	1065.99	0.7

System: 1-bromo-2-chloroethane + ethyl acetate; phases: Liquid
Property: Mass density, kg/m3 (Liquid); method: VIBTUB:UFactor:6
Pressure, kPa	Temperature, K	Mole fraction of 1-bromo-2-chloroethane	Mass density, kg/m3	uncertainty
101.325	288.15	0	906.71	0.47
101.325	288.15	0.108	984.97	0.4
101.325	288.15	0.1985	1051.71	0.52
101.325	288.15	0.2997	1128.56	0.73
101.325	288.15	0.3988	1205.99	0.95
101.325	288.15	0.5008	1288.67	1.19
101.325	288.15	0.5477	1327.76	1.31
101.325	288.15	0.6462	1412.26	1.56
101.325	288.15	0.7653	1518.63	1.89
101.325	288.15	0.803	1553.45	2.01
101.325	288.15	0.905	1650.02	2.32
101.325	288.15	1	1744.36	2.63
101.325	298.15	0	894.97	0.49
101.325	298.15	0.108	972.55	0.41
101.325	298.15	0.1985	1039.06	0.5
101.325	298.15	0.2997	1115.49	0.7
101.325	298.15	0.3988	1192.41	0.92
101.325	298.15	0.5008	1274.57	1.16
101.325	298.15	0.5477	1313.32	1.27
101.325	298.15	0.6462	1397.28	1.53
101.325	298.15	0.7653	1503.13	1.86
101.325	298.15	0.803	1537.71	1.97
101.325	298.15	0.905	1634.03	2.28
101.325	298.15	1	1727.88	2.59
101.325	308.15	0	882.27	0.51
101.325	308.15	0.108	959.03	0.43
101.325	308.15	0.1985	1024.94	0.48
101.325	308.15	0.2997	1100.59	0.68
101.325	308.15	0.3988	1177.02	0.89
101.325	308.15	0.5008	1258.55	1.13
101.325	308.15	0.5477	1296.96	1.24
101.325	308.15	0.6462	1380.36	1.49
101.325	308.15	0.7653	1485.56	1.82
101.325	308.15	0.803	1519.81	1.93
101.325	308.15	0.905	1615.55	2.24
101.325	308.15	1	1708.86	2.54
200	298.15	0.2995	1115.91	0.71
200	298.15	0.5013	1278.27	1.17
200	298.15	0.6994	1442.43	1.68
500	298.15	0.2995	1116.35	0.71
600	298.15	0.6994	1443.12	1.71
700	298.15	0.5013	1278.85	1.2
1100	298.15	0.6994	1443.6	1.75
1200	298.15	0.2995	1117.05	0.73
1200	298.15	0.5013	1279.48	1.22
2100	298.15	0.2995	1118.11	0.75
2100	298.15	0.5013	1280.34	1.27
2100	298.15	0.6994	1444.65	1.83
2900	298.15	0.6994	1445.74	1.9
3000	298.15	0.2995	1119.13	0.77
3000	298.15	0.5013	1281.5	1.32
4000	298.15	0.2995	1120.19	0.79
4000	298.15	0.5013	1282.56	1.37
4100	298.15	0.6994	1447.07	2.01
5000	298.15	0.2995	1121.32	0.81
5000	298.15	0.5013	1283.71	1.43
5100	298.15	0.6994	1448.15	2.1
5800	298.15	0.2995	1122.17	0.83
5800	298.15	0.6994	1448.98	2.16
5900	298.15	0.5013	1284.8	1.48
7000	298.15	0.5013	1285.84	1.55
7000	298.15	0.6994	1450.32	2.27
7100	298.15	0.2995	1123.21	0.86
7700	298.15	0.6994	1451.09	2.34
7900	298.15	0.2995	1124.37	0.89
8000	298.15	0.5013	1286.92	1.61
8600	298.15	0.2995	1125.17	0.91
8700	298.15	0.5013	1287.86	1.65
8800	298.15	0.6994	1452.5	2.45
10100	298.15	0.2995	1126.71	0.95
10100	298.15	0.5013	1289.28	1.74
10300	298.15	0.6994	1454.22	2.59
11700	298.15	0.2995	1128.38	0.99
12000	298.15	0.5013	1291.48	1.87
12000	298.15	0.6994	1456.29	2.77
13700	298.15	0.5013	1293.44	1.98
13800	298.15	0.2995	1130.67	1.06
14000	298.15	0.6994	1458.57	2.97
15500	298.15	0.5013	1295.42	2.1
15900	298.15	0.2995	1132.71	1.12
15900	298.15	0.6994	1460.86	3.18
17400	298.15	0.6994	1462.58	3.34
17700	298.15	0.2995	1134.48	1.18
17900	298.15	0.5013	1298.2	2.27
19200	298.15	0.6994	1464.86	3.53
19700	298.15	0.2995	1136.76	1.25
19800	298.15	0.5013	1300.25	2.41
