Measured thermophysical data. Ultrasonic Velocity and Density Studies of Solutions of Maleic Acid and Tartaric Acid inWater at T = (298.15 and 308.15)K
Source: Int. J. Thermophys., 2010, 10.1007/s10765-010-0736-6
Compound 1: water, H2O, InChI=1S/H2O/h1H2
Compound 2: cis-1,4-butenedioic acid, C4H4O4, InChI=1S/C4H4O4/c5-3(6)1-2-4(7)8/h1-2H,(H,5,6)(H,7,8)/b2-1-, purity 99.5%
Compound 3: 2,3-dihydroxybutanedioic acid, C4H6O6, InChI=1S/C4H6O6/c5-1(3(7)8)2(6)4(9)10/h1-2,5-6H,(H,7,8)(H,9,10), purity 99.5%

System: cis-1,4-butenedioic acid + water; phases: Liquid
Fixed: Pressure, kPa = 101.3
Property: Speed of sound, m/s (Liquid); method: Linear variable-path acoustic interferometer
Temperature, K	Molality, mol/kg of cis-1,4-butenedioic acid	Speed of sound, m/s	uncertainty
298.15	0	1496.8	2
298.15	0.2603	1502.4	2
298.15	0.6112	1508.8	2
298.15	0.9261	1512.8	2
298.15	1.4956	1519.6	2
298.15	1.9153	1523.2	2
298.15	2.4319	1526.8	2
308.15	0	1519.6	2
308.15	0.2603	1524	2
308.15	0.6112	1528.8	2
308.15	0.9261	1532	2
308.15	1.4956	1538	2.1
308.15	1.9153	1541.6	2.1
308.15	2.4319	1544.8	2.1

System: cis-1,4-butenedioic acid + water; phases: Liquid
Fixed: Pressure, kPa = 101.3
Property: Mass density, kg/m3 (Liquid); method: PYCNOM:UFactor:2
Temperature, K	Molality, mol/kg of cis-1,4-butenedioic acid	Mass density, kg/m3	uncertainty
298.15	0	997	0.5
298.15	0.2603	1007.2	0.5
298.15	0.6112	1019.8	0.5
298.15	0.9261	1030.4	0.5
298.15	1.4956	1048.3	0.5
298.15	1.9153	1060.5	0.5
298.15	2.4319	1074.6	0.6
308.15	0	994	0.5
308.15	0.2603	1003.9	0.6
308.15	0.6112	1016.2	0.6
308.15	0.9261	1026.6	0.6
308.15	1.4956	1044	0.6
308.15	1.9153	1055.9	0.6
308.15	2.4319	1069.4	0.6

System: 2,3-dihydroxybutanedioic acid + water; phases: Liquid
Fixed: Pressure, kPa = 101.3
Property: Speed of sound, m/s (Liquid); method: Linear variable-path acoustic interferometer
Temperature, K	Molality, mol/kg of 2,3-dihydroxybutanedioic acid	Speed of sound, m/s	uncertainty
298.15	0	1496.8	2
298.15	0.4451	1512	2
298.15	0.5918	1517.2	2
298.15	1.3419	1540	2.1
298.15	1.6891	1552.4	2.1
298.15	1.9277	1561.2	2.1
298.15	2.6621	1589.6	2.1
308.15	0	1519.6	2
308.15	0.4451	1534.4	2
308.15	0.5918	1539.2	2.1
308.15	1.3419	1561.6	2.1
308.15	1.6891	1570	2.1
308.15	1.9277	1577	2.1
308.15	2.6621	1598.8	2.1

System: 2,3-dihydroxybutanedioic acid + water; phases: Liquid
Fixed: Pressure, kPa = 101.3
Property: Mass density, kg/m3 (Liquid); method: PYCNOM:UFactor:2
Temperature, K	Molality, mol/kg of 2,3-dihydroxybutanedioic acid	Mass density, kg/m3	uncertainty
298.15	0	997	0.5
298.15	0.445	1025.5	0.5
298.15	0.5918	1034.3	0.5
298.15	1.3419	1076.2	0.6
298.15	1.6891	1093.6	0.6
298.15	1.9277	1105.3	0.6
298.15	2.6621	1138.7	0.6
308.15	0	994	0.5
308.15	0.445	1022.2	0.6
308.15	0.5918	1030.6	0.6
308.15	1.3419	1071.1	0.6
308.15	1.6891	1088.4	0.6
308.15	1.9277	1099.8	0.6
308.15	2.6621	1132.4	0.6
