Measured thermophysical data. Partial Molar Volumes, Viscosity B-Coefficients, and Adiabatic Compressibilities of Sodium Molybdate in Aqueous 1,3-Dioxolane Mixtures from 303.15 to 323.15 K
Source: Int. J. Thermophys., 2007, 10.1007/s10765-007-0220-0
Compound 1: 1,3-dioxolane, C3H6O2, InChI=1S/C3H6O2/c1-2-5-3-4-1/h1-3H2
Compound 2: water, H2O, InChI=1S/H2O/h1H2
Compound 3: sodium molybdate, MoNa2O4, InChI=1S/Mo.2Na.4O/q;2*+1;;;2*-1

System: 1,3-dioxolane + water; phases: Liquid
Fixed: Pressure, kPa = 101
Property: Viscosity, Pa*s (Liquid); method: CAPTUB:UFactor:8
Temperature, K	Mass fraction of 1,3-dioxolane	Viscosity, Pa*s	uncertainty
303.15	0.1	0.0008133	4.15e-05
303.15	0.2	0.0008766	4.42e-05
303.15	0.3	0.0009304	4.65e-05
303.15	1	0.0005486	2.99e-05
313.15	0.1	0.0006555	3.47e-05
313.15	0.2	0.0007152	3.72e-05
313.15	0.3	0.0007618	3.92e-05
313.15	1	0.0004986	2.78e-05
323.15	0.1	0.0005673	3.08e-05
323.15	0.2	0.0006053	3.25e-05
323.15	0.3	0.0006297	3.35e-05
323.15	1	0.0004183	2.43e-05

System: 1,3-dioxolane + water; phases: Liquid
Fixed: Pressure, kPa = 101
Property: Mass density, kg/m3 (Liquid); method: PYCNOM:airbuo:UFactor:16
Temperature, K	Mass fraction of 1,3-dioxolane	Mass density, kg/m3	uncertainty
303.15	0.1	1007.2	4.4
303.15	0.2	1018.5	4.4
303.15	0.3	1028	4.5
303.15	1	1051.8	4.5
313.15	0.1	1001.2	4.7
313.15	0.2	1012.5	4.8
313.15	0.3	1021	4.8
313.15	1	1042.2	4.8
323.15	0.1	997.7	5.1
323.15	0.2	1007.6	5.1
323.15	0.3	1013.5	5.1
323.15	1	1031.1	5.1

System: 1,3-dioxolane + sodium molybdate + water; phases: Liquid
Fixed: Pressure, kPa = 101
Fixed: Temperature, K = 303.15
Property: Speed of sound, m/s (Liquid); method: LVPAI:UFactor:8
Molality, mol/kg of sodium molybdate	Solvent: Mass fraction of 1,3-dioxolane	Speed of sound, m/s	uncertainty
0.0237	0.1	1510	14.6
0.0238	0.2	1541.7	14.8
0.0243	0.3	1543.4	14.8
0.0312	0.3	1545.3	14.8
0.0316	0.1	1512.2	14.6
0.0318	0.2	1542.8	14.8
0.0547	0.3	1555.6	14.9
0.0554	0.1	1519.9	14.6
0.0557	0.2	1548.6	14.9
0.0704	0.3	1564.3	15
0.0713	0.1	1527.1	14.7
0.0717	0.2	1554.7	14.9
0.0861	0.3	1574.8	15.1
0.0872	0.1	1535.3	14.8
0.0877	0.2	1561.9	15
0.0979	0.3	1585.1	15.2
0.0992	0.1	1541	14.8
0.0997	0.2	1567.8	15

System: 1,3-dioxolane + sodium molybdate + water; phases: Liquid
Fixed: Pressure, kPa = 101
Property: Viscosity, Pa*s (Liquid); method: CAPTUB:UFactor:8
Temperature, K	Mass fraction of 1,3-dioxolane	Amount concentration (molarity), mol/dm3 of sodium molybdate	Viscosity, Pa*s	uncertainty
303.15	0.1	0.0238	0.0008248	4.19e-05
303.15	0.1	0.0318	0.0008297	4.21e-05
303.15	0.1	0.0556	0.0008412	4.26e-05
303.15	0.1	0.0715	0.0008499	4.3e-05
303.15	0.1	0.0874	0.0008582	4.33e-05
303.15	0.1	0.0993	0.0008662	4.37e-05
303.15	0.2	0.0242	0.0008893	4.47e-05
303.15	0.2	0.0323	0.0008963	4.5e-05
303.15	0.2	0.0565	0.0009216	4.61e-05
303.15	0.2	0.0727	0.000938	4.68e-05
303.15	0.2	0.0888	0.0009557	4.75e-05
303.15	0.2	0.1009	0.0009696	4.81e-05
303.15	0.3	0.0249	0.0009335	4.66e-05
303.15	0.3	0.032	0.0009387	4.68e-05
303.15	0.3	0.056	0.0009614	4.78e-05
303.15	0.3	0.072	0.0009786	4.85e-05
303.15	0.3	0.088	0.0009963	4.93e-05
303.15	0.3	0.1	0.0010079	4.98e-05
313.15	0.1	0.0237	0.0006599	3.48e-05
313.15	0.1	0.0316	0.0006639	3.5e-05
313.15	0.1	0.0553	0.0006769	3.55e-05
313.15	0.1	0.0711	0.0006864	3.59e-05
313.15	0.1	0.0869	0.0006967	3.64e-05
313.15	0.1	0.0987	0.0007052	3.67e-05
313.15	0.2	0.024	0.0007198	3.74e-05
313.15	0.2	0.0322	0.0007249	3.76e-05
313.15	0.2	0.0562	0.0007423	3.83e-05
313.15	0.2	0.0722	0.0007555	3.89e-05
313.15	0.2	0.0882	0.00077	3.95e-05
313.15	0.2	0.1003	0.0007816	4e-05
313.15	0.3	0.0248	0.0007622	3.92e-05
313.15	0.3	0.0318	0.0007654	3.93e-05
313.15	0.3	0.0557	0.0007831	4.01e-05
313.15	0.3	0.0716	0.0007961	4.07e-05
313.15	0.3	0.0874	0.0008106	4.13e-05
313.15	0.3	0.0994	0.0008218	4.18e-05
323.15	0.1	0.0236	0.000571	3.09e-05
323.15	0.1	0.0316	0.0005746	3.11e-05
323.15	0.1	0.0551	0.0005871	3.16e-05
323.15	0.1	0.0708	0.000596	3.2e-05
323.15	0.1	0.0866	0.0006049	3.24e-05
323.15	0.1	0.0983	0.0006115	3.27e-05
323.15	0.2	0.0239	0.0006069	3.25e-05
323.15	0.2	0.032	0.0006118	3.27e-05
323.15	0.2	0.0558	0.0006262	3.33e-05
323.15	0.2	0.0718	0.000637	3.38e-05
323.15	0.2	0.0877	0.0006495	3.43e-05
323.15	0.2	0.0997	0.0006586	3.47e-05
323.15	0.3	0.0246	0.0006301	3.35e-05
323.15	0.3	0.0304	0.0006328	3.36e-05
323.15	0.3	0.0553	0.0006499	3.44e-05
323.15	0.3	0.0711	0.000662	3.49e-05
323.15	0.3	0.0868	0.0006731	3.54e-05
323.15	0.3	0.0988	0.0006828	3.58e-05

System: 1,3-dioxolane + sodium molybdate + water; phases: Liquid
Fixed: Pressure, kPa = 101
Property: Mass density, kg/m3 (Liquid); method: PYCNOM:airbuo:UFactor:16
Temperature, K	Solvent: Mass fraction of 1,3-dioxolane	Amount concentration (molarity), mol/dm3 of 1,3-dioxolane	Mass density, kg/m3	uncertainty
303.15	0.1	0.0238	1011.4	4.4
303.15	0.1	0.0318	1012.8	4.4
303.15	0.1	0.0556	1017	4.4
303.15	0.1	0.0715	1019.9	4.4
303.15	0.1	0.0874	1022.7	4.4
303.15	0.1	0.0993	1024.9	4.4
303.15	0.2	0.0242	1022.6	4.4
303.15	0.2	0.0323	1024	4.4
303.15	0.2	0.0565	1028.4	4.5
303.15	0.2	0.0727	1031.3	4.5
303.15	0.2	0.0888	1034.4	4.5
303.15	0.2	0.1009	1036.6	4.5
303.15	0.3	0.0249	1031.9	4.5
303.15	0.3	0.032	1033.2	4.5
303.15	0.3	0.056	1037.3	4.5
303.15	0.3	0.072	1040.2	4.5
303.15	0.3	0.088	1043	4.5
303.15	0.3	0.1	1045.2	4.6
313.15	0.1	0.0237	1005.3	4.7
313.15	0.1	0.0316	1006.7	4.7
313.15	0.1	0.0553	1011	4.7
313.15	0.1	0.0711	1013.9	4.7
313.15	0.1	0.0869	1016.9	4.8
313.15	0.1	0.0987	1019.1	4.8
313.15	0.2	0.024	1016.2	4.8
313.15	0.2	0.0322	1017.6	4.8
313.15	0.2	0.0562	1021.7	4.8
313.15	0.2	0.0722	1024.5	4.8
313.15	0.2	0.0882	1027.4	4.8
313.15	0.2	0.1003	1029.6	4.8
313.15	0.3	0.0248	1025.1	4.8
313.15	0.3	0.0318	1026.4	4.8
313.15	0.3	0.0557	1031.1	4.8
313.15	0.3	0.0716	1034.4	4.9
313.15	0.3	0.0874	1037.9	4.9
313.15	0.3	0.0994	1040.4	4.9
323.15	0.1	0.0236	1001.6	5
323.15	0.1	0.0316	1002.9	5.1
323.15	0.1	0.0551	1007	5.1
323.15	0.1	0.0708	1009.8	5.1
323.15	0.1	0.0866	1012.7	5.1
323.15	0.1	0.0983	1014.9	5.1
323.15	0.2	0.0239	1010.9	5.1
323.15	0.2	0.032	1012.2	5.1
323.15	0.2	0.0558	1015.9	5.1
323.15	0.2	0.0718	1018.5	5.1
323.15	0.2	0.0877	1021.1	5.1
323.15	0.2	0.0997	1023.3	5.2
323.15	0.3	0.0246	1015.6	5.1
323.15	0.3	0.0304	1016.3	5.1
323.15	0.3	0.0553	1019.2	5.1
323.15	0.3	0.0711	1021.6	5.2
323.15	0.3	0.0868	1024	5.2
323.15	0.3	0.0988	1026	5.2
