Measured thermophysical data. Repeatability and Refinement of a Transient Hot-wire Instrument for Measuring the Thermal Conductivity of High Temperature Melts
Source: Int. J. Thermophys., 2006, 10.1007/s10765-006-0124-4
Compound 1: indium, In, InChI=1S/In
Compound 2: tin, Sn, InChI=1S/Sn

System: indium; phases: Liquid
Fixed: Pressure, kPa = 101.325
Property: Thermal conductivity, W/m/K (Liquid); method: Hot wire method
Temperature, K	Thermal conductivity, W/m/K	uncertainty
467	36.3	1.1
495.4	37	1.1
522.2	38.2	1.2
575.9	40	1.2
608.8	41.4	1.2
630.2	42.2	1.3
684.5	44	1.3
711	44.4	1.3
734.1	45.3	1.4

System: tin; phases: Liquid
Fixed: Pressure, kPa = 101.325
Property: Thermal conductivity, W/m/K (Liquid); method: Hot wire method
Temperature, K	Thermal conductivity, W/m/K	uncertainty
523.1	27.3	0.8
549.2	28	0.8
580	28.6	0.9
603.7	29.1	0.9
634.9	30	0.9
657	30.6	0.9
683.8	31.4	0.9
707.6	31.9	1
733.2	32.5	1
