Measured thermophysical data. Measurements of Specific Heat Capacity of Gaseous R-143a Using a Flow Calorimeter
Source: Int. J. Thermophys., 2007, 10.1007/s10765-007-0186-y
Compound 1: 1,1,1-trifluoroethane, C2H3F3, InChI=1S/C2H3F3/c1-2(3,4)5/h1H3, purity 99.95%

System: 1,1,1-trifluoroethane; phases: Gas
Property: Molar heat capacity at constant pressure, J/K/mol (Gas); method: Flow calorimetry
Temperature, K	Pressure, kPa	Molar heat capacity at constant pressure, J/K/mol	uncertainty
311.15	1600	120.177814328	1.680808592
317.15	1800	125.8925635408	2.941415036
318.15	1600	111.773771368	2.521212888
318.15	2000	139.507113136	3.1094958952
324.15	2200	145.3059027784	3.1935363248
326.15	2400	161.6937865504	4.2860619096
327.15	2400	160.7693418248	2.4371724584
338.15	2400	130.5988275984	5.3785874944
341.15	2200	117.236399292	3.6977789024
343.15	2400	124.800037956	3.5296980432
