Measured thermophysical data. A Digital Variable-Angle Rolling-Ball Viscometer  for Measurement of Viscosity, Density, and Bubble-Point  Pressure of CO2 and Organic Liquid Mixtures
Source: Int. J. Thermophys., 2010, 10.1007/s10765-008-0542-6
Compound 1: decane, C10H22, InChI=1S/C10H22/c1-3-5-7-9-10-8-6-4-2/h3-10H2,1-2H3
Compound 2: octane, C8H18, InChI=1S/C8H18/c1-3-5-7-8-6-4-2/h3-8H2,1-2H3
Compound 3: toluene, C7H8, InChI=1S/C7H8/c1-7-5-3-2-4-6-7/h2-6H,1H3
Compound 4: tetrahydrofuran, C4H8O, InChI=1S/C4H8O/c1-2-4-5-3-1/h1-4H2
Compound 5: carbon dioxide, CO2, InChI=1S/CO2/c2-1-3

System: decane; phases: Liquid
Property: Viscosity, Pa*s (Liquid); method: Falling or rolling sphere viscometry
Temperature, K	Pressure, kPa	Viscosity, Pa*s	uncertainty
323.1	100	0.000601	1.4e-05
323.2	3220	0.000636	1.5e-05
323.2	5110	0.00065	1.5e-05
323.2	10200	0.000682	1.6e-05
333.1	100	0.000537	1.3e-05
333.1	2090	0.00056	1.3e-05
333.1	6360	0.000585	1.4e-05

System: decane; phases: Liquid
Property: Mass density, kg/m3 (Liquid); method: Pycnometric method
Temperature, K	Pressure, kPa	Mass density, kg/m3	uncertainty
323.1	100	704.1	0.6
323.2	3220	704.4	0.6
323.2	5110	710.5	0.6
323.2	10200	714.5	0.6
333.1	100	690.7	0.6
333.1	2090	701.1	0.6
333.1	6360	705.4	0.7

System: octane; phases: Liquid
Fixed: Temperature, K = 323.2
Property: Viscosity, Pa*s (Liquid); method: Falling or rolling sphere viscometry
Pressure, kPa	Viscosity, Pa*s	uncertainty
180	0.000391	9e-06
2280	0.000382	9e-06
5120	0.000414	1e-05
10380	0.00043	1e-05

System: octane; phases: Liquid
Fixed: Temperature, K = 323.2
Property: Mass density, kg/m3 (Liquid); method: Pycnometric method
Pressure, kPa	Mass density, kg/m3	uncertainty
180	679	0.6
2280	677.1	0.6
5120	683.8	0.6
10380	686.9	0.6

System: toluene; phases: Liquid
Property: Mass density, kg/m3 (Liquid); method: Pycnometric method
Temperature, K	Pressure, kPa	Mass density, kg/m3	uncertainty
323.2	5240	843.3	0.7
323.2	10200	847.8	0.7
333.1	2090	830.7	0.7
333.1	4220	832.7	0.7
333.1	6360	834.8	0.7
333.1	10200	838.2	0.7

System: tetrahydrofuran; phases: Liquid
Property: Viscosity, Pa*s (Liquid); method: Falling or rolling sphere viscometry
Temperature, K	Pressure, kPa	Viscosity, Pa*s	uncertainty
333.2	10200	0.000365	9e-06

System: tetrahydrofuran; phases: Liquid
Property: Mass density, kg/m3 (Liquid); method: Pycnometric method
Temperature, K	Pressure, kPa	Mass density, kg/m3	uncertainty
333.2	10200	850.8	0.7

System: tetrahydrofuran + carbon dioxide; phases: Liquid
Fixed: Temperature, K = 333.2
Fixed: Pressure, kPa = 10200
Property: Viscosity, Pa*s (Liquid); method: Falling or rolling sphere viscometry
Mole fraction of carbon dioxide	Viscosity, Pa*s	uncertainty
0	0.000365	9e-06
0.119	0.000318	8e-06
0.166	0.0003	7e-06
0.272	0.000252	6e-06

System: tetrahydrofuran + carbon dioxide; phases: Liquid, Gas
Fixed: Temperature, K = 333.2
Property: Vapor or sublimation pressure, kPa (Liquid); method: Closed cell (Static) method
Mole fraction of carbon dioxide	Vapor or sublimation pressure, kPa	uncertainty
0.119	1140	40
0.219	2060	40

System: tetrahydrofuran + carbon dioxide; phases: Liquid
Fixed: Temperature, K = 333.2
Fixed: Pressure, kPa = 10200
Property: Mass density, kg/m3 (Liquid); method: Pycnometric method
Mole fraction of carbon dioxide	Mass density, kg/m3	uncertainty
0	850.8	0.7
0.119	851.9	0.7
0.166	852.6	0.7
0.272	856.1	0.7
