Measured thermophysical data. Burnett PVT Measurements of Hydrogen and the Development of a Virial Equation of State at Pressures up to 100 MPa
Source: Int. J. Thermophys., 2012, 10.1007/s10765-012-1168-2
Compound 1: hydrogen, H2, InChI=1S/H2/h1H, purity 99.999%

System: hydrogen; phases: Fluid (supercritical or subcritical phases)
Property: Amount density, mol/m3 (Fluid (supercritical or subcritical phases)); method: Burnett expansion method
Temperature, K	Pressure, kPa	Amount density, mol/m3	uncertainty
353.223	96078	21498	63
353.223	59493	15300	46
353.223	38699	10888	34
353.223	25948	7748.6	27
353.223	17741	5514.6	22.6
353.223	12284	3924.8	20.5
353.223	8580	2793.3	19.4
353.223	6028	1988.1	19.2
353.223	4251	1415	19
353.223	3006	1007.1	18.7
353.223	2129	716.81	18.71
353.223	1510	510.19	18.79
353.223	1072	363.13	18.83
393.216	99707	20498	61
393.216	62378	14592	44
393.216	40796	10388	32
393.216	27448	7395.6	25.2
393.216	18809	5265.9	20.9
393.216	13040	3749.8	18.5
393.216	9119	2670.3	17.4
393.216	6412	1901.7	16.9
393.216	4525	1354.3	16.8
393.216	3203	964.5	16.8
393.216	2271	686.9	16.83
393.216	1612	489.2	16.88
393.216	1145	348.41	16.85
353.249	99823	22045	65
353.249	61529	15689	47
353.249	39891	11164	35
353.249	26701	7944.8	27.4
353.249	18235	5653.8	22.9
353.249	12611	4023.6	20.6
353.249	8804	2863.5	19.5
353.249	6181	2037.9	19.2
353.249	4358	1450.3	18.6
353.249	3081	1032.2	18.7
353.249	2183	734.57	18.72
353.249	1548	522.79	18.8
353.249	1099	372.06	18.83
433.183	99763	19198	57
433.183	63167	13669	41
433.183	41617	9734.5	30.5
433.183	28131	6933.6	23.7
433.183	19337	4939.5	19.3
433.183	13435	3519.3	17.2
433.183	9409	2507.7	16.1
433.183	6625	1787	15.5
433.183	4682	1273.4	15.3
433.183	3316	907.49	15.29
433.183	2353	646.72	15.32
433.183	1673	460.89	15.36
433.183	1190	328.46	15.21
373.251	99849	21257	63
373.251	62030	15130	45
373.251	40397	10769	34
373.251	27113	7665.1	26.2
373.251	18544	5456.3	21.7
373.251	12844	3884.3	19.4
373.251	8974	2765.2	18.3
373.251	6306	1968.6	17.8
373.251	4448	1401.5	17.7
373.251	3146	997.77	17.67
373.251	2229	710.36	17.73
373.251	1582	505.73	17.8
373.251	1124	360.05	17.78
433.187	96737	18794	55
433.187	61451	13382	40
433.187	40570	9530.8	30
433.187	27466	6789.3	23.3
433.187	18887	4837.4	19.1
433.187	13140	3447	17.1
433.187	9208	2456.5	16
433.187	6486	1750.8	15.4
433.187	4585	1247.8	15.3
433.187	3249	889.41	15.28
433.187	2306	633.94	15.32
433.187	1640	451.86	15.37
433.187	1166	322.08	15.22
473.191	97599	17758	52
473.191	62556	12647	38
473.191	41475	9009.9	28.1
473.191	28177	6420.2	21.6
473.191	19436	4575.9	17.7
473.191	13542	3261.9	15.7
473.191	9501	2325.6	14.4
473.191	6699	1658.1	14.3
473.191	4740	1182.3	14.1
473.191	3362	843.06	14.04
473.191	2387	601.18	14.06
473.191	1698	428.7	14.11
473.191	1210	305.71	14.14
473.196	99349	17990	53
473.196	63569	12813	39
473.196	42153	9127.8	28.4
473.196	28617	6504.3	21.8
473.196	19728	4636	17.8
473.196	13736	3304.9	15.7
473.196	9636	2356.3	14.5
473.196	6792	1680.1	14.3
473.196	4805	1198	14.1
473.196	3407	854.3	14.05
473.196	2419	609.22	14.06
473.196	1722	434.44	14.11
473.196	1226	309.82	14.13
