Measured thermophysical data. Measurement of Vapor Liquid Equilibrium for the DME + Diisopropyl Ether Binary System and Correlation for the DME + CO2 + Diisopropyl Ether Ternary System
Source: Int. J. Thermophys., 2010, 10.1007/s10765-010-0718-8
Compound 1: diisopropyl ether, C6H14O, InChI=1S/C6H14O/c1-5(2)7-6(3)4/h5-6H,1-4H3, purity 99%
Compound 2: dimethyl ether, C2H6O, InChI=1S/C2H6O/c1-3-2/h1-2H3, purity 99.99%

System: diisopropyl ether + dimethyl ether; phases: Liquid, Gas
Property: Vapor or sublimation pressure, kPa (Liquid); method: CCELL:UFactor:16
Mole fraction of dimethyl ether	Temperature, K	Vapor or sublimation pressure, kPa	uncertainty
0.1777	332.9	374	22
0.1853	352.7	498	27
0.2094	332.9	459	25
0.2131	312.93	335	20
0.2237	293.04	263	17
0.236	352.7	670	34
0.2627	312.93	447	24
0.2659	293.04	335	20
0.2836	352.7	840	43
0.2893	332.9	666	34
0.3038	312.93	525	27
0.3098	293.04	400	22
0.3295	352.7	1001	50
0.3421	332.9	823	41
0.3557	293.04	467	25
0.3668	352.7	1130	57
0.3773	312.93	656	33
0.3925	332.9	935	47
0.4101	293.04	560	28
0.4332	312.93	768	39

System: diisopropyl ether + dimethyl ether; phases: Gas, Liquid
Property: Mole fraction of dimethyl ether (Gas); method: CHROM:UFactor:4
Mole fraction of dimethyl ether	Temperature, K	Mole fraction of dimethyl ether	uncertainty
0.1777	332.9	0.801	0.0075
0.1853	352.7	0.7366	0.01
0.2094	332.9	0.8203	0.0068
0.2131	312.93	0.8834	0.0046
0.2237	293.04	0.9366	0.003
0.236	352.7	0.7775	0.0084
0.2627	312.93	0.9087	0.0038
0.2659	293.04	0.9468	0.0027
0.2836	352.7	0.8092	0.0072
0.2893	332.9	0.8678	0.005
0.3038	312.93	0.9199	0.0034
0.3098	293.04	0.9561	0.0025
0.3295	352.7	0.8385	0.0061
0.3421	332.9	0.8898	0.0043
0.3557	293.04	0.9636	0.0024
0.3668	352.7	0.8544	0.0055
0.3773	312.93	0.9392	0.0029
0.3925	332.9	0.9033	0.0039
0.4101	293.04	0.9705	0.0023
0.4332	312.93	0.9511	0.0026
