Measured thermophysical data. Measurements of the Liquid Viscosities of Mixtures of n-Butane, n-Hexane, and n-Octane with Squalane to 30MPa
Source: Int. J. Thermophys., 2006, 10.1007/s10765-006-0053-2
Compound 1: butane, C4H10, InChI=1S/C4H10/c1-3-4-2/h3-4H2,1-2H3, purity 98%
Compound 2: hexane, C6H14, InChI=1S/C6H14/c1-3-5-6-4-2/h3-6H2,1-2H3, purity 98%
Compound 3: octane, C8H18, InChI=1S/C8H18/c1-3-5-7-8-6-4-2/h3-8H2,1-2H3, purity 98%
Compound 4: 2,6,10,15,19,23-hexamethyltetracosane, C30H62, InChI=1S/C30H62/c1-25(2)15-11-19-29(7)23-13-21-27(5)17-9-10-18-28(6)22-14-24-30(8)20-12-16-26(3)4/h25-30H,9-24H2,1-8H3, purity 98%

System: butane; phases: Liquid
Property: Viscosity, Pa*s (Liquid); method: Falling or rolling sphere viscometry
Temperature, K	Pressure, kPa	Viscosity, Pa*s	uncertainty
273.15	100	0.000203	1.2e-05
273.15	10000	0.000225	1.3e-05
273.15	20000	0.000247	1.5e-05
273.15	30000	0.000269	1.6e-05
293.15	200	0.00017	1e-05
293.15	10000	0.000184	1.1e-05
293.15	20000	0.000209	1.2e-05
293.15	30000	0.000232	1.4e-05
313.15	400	0.000143	9e-06
313.15	10000	0.00016	1e-05
313.15	20000	0.000184	1.1e-05
313.15	30000	0.000202	1.2e-05
333.15	600	0.000118	7e-06
333.15	10000	0.000133	8e-06
333.15	20000	0.000153	9e-06
333.15	30000	0.000172	1e-05

System: butane; phases: Liquid
Property: Mass density, kg/m3 (Liquid); method: Constant-volume piezometry
Temperature, K	Pressure, kPa	Mass density, kg/m3	uncertainty
273.15	100	601	5
273.15	10000	612	5
273.15	20000	622	5
273.15	30000	631	5
293.15	200	578	5
293.15	10000	592	5
293.15	20000	605	5
293.15	30000	614	5
313.15	400	555	5
313.15	10000	572	5
313.15	20000	586	5
313.15	30000	598	5
333.15	600	529	4
333.15	10000	550	5
333.15	20000	567	5
333.15	30000	580	5

System: hexane; phases: Liquid
Property: Viscosity, Pa*s (Liquid); method: Falling or rolling sphere viscometry
Temperature, K	Pressure, kPa	Viscosity, Pa*s	uncertainty
273.15	100	0.000382	2.3e-05
273.15	10000	0.000421	2.5e-05
273.15	20000	0.000456	2.7e-05
273.15	30000	0.000492	2.9e-05
293.15	100	0.00031	2e-05
293.15	10000	0.00034	2e-05
293.15	20000	0.000375	2.2e-05
293.15	30000	0.000407	2.4e-05
313.15	100	0.000257	1.5e-05
313.15	10000	0.000287	1.7e-05
313.15	20000	0.000317	1.9e-05
313.15	30000	0.000351	2.1e-05
333.15	100	0.000218	1.3e-05
333.15	10000	0.000241	1.4e-05
333.15	20000	0.000266	1.6e-05
333.15	30000	0.000291	1.7e-05

System: hexane; phases: Liquid
Property: Mass density, kg/m3 (Liquid); method: Constant-volume piezometry
Temperature, K	Pressure, kPa	Mass density, kg/m3	uncertainty
273.15	100	678	6
273.15	10000	686	6
273.15	20000	693	6
273.15	30000	700	6
293.15	100	660	5
293.15	10000	670	5
293.15	20000	678	6
293.15	30000	685	6
313.15	100	642	5
313.15	10000	653	5
313.15	20000	662	5
313.15	30000	671	5
333.15	100	623	5
333.15	10000	636	5
333.15	20000	647	5
333.15	30000	656	5

System: octane; phases: Liquid
Property: Viscosity, Pa*s (Liquid); method: Falling or rolling sphere viscometry
Temperature, K	Pressure, kPa	Viscosity, Pa*s	uncertainty
273.15	100	0.000705	4.2e-05
273.15	10000	0.000793	4.7e-05
273.15	20000	0.000871	5.2e-05
273.15	30000	0.000971	5.8e-05
293.15	100	0.000544	3.2e-05
293.15	10000	0.000596	3.5e-05
293.15	20000	0.000659	3.9e-05
293.15	30000	0.000717	4.3e-05
313.15	100	0.000429	2.6e-05
313.15	10000	0.000483	2.9e-05
313.15	20000	0.000536	3.2e-05
313.15	30000	0.000593	3.5e-05
333.15	100	0.000351	2.1e-05
333.15	10000	0.000388	2.3e-05
333.15	20000	0.000441	2.6e-05
333.15	30000	0.000482	2.9e-05

System: octane; phases: Liquid
Property: Mass density, kg/m3 (Liquid); method: Constant-volume piezometry
Temperature, K	Pressure, kPa	Mass density, kg/m3	uncertainty
273.15	100	719	6
273.15	10000	726	6
273.15	20000	733	6
273.15	30000	739	6
293.15	100	703	6
293.15	10000	711	6
293.15	20000	718	6
293.15	30000	725	6
313.15	100	687	6
313.15	10000	696	6
313.15	20000	704	6
313.15	30000	712	6
333.15	100	670	5
333.15	10000	681	6
333.15	20000	690	6
333.15	30000	698	6

System: 2,6,10,15,19,23-hexamethyltetracosane; phases: Liquid
Property: Viscosity, Pa*s (Liquid); method: Falling or rolling sphere viscometry
Temperature, K	Pressure, kPa	Viscosity, Pa*s	uncertainty
273.15	100	0.1166	0.0076
273.15	10000	0.1524	0.0105
273.15	20000	0.1994	0.0146
273.15	30000	0.2614	0.0205
293.15	100	0.0353	0.0022
293.15	10000	0.0436	0.0026
293.15	20000	0.054	0.003
293.15	30000	0.0656	0.0047
313.15	100	0.0154	0.0009
313.15	10000	0.0183	0.0011
313.15	20000	0.0227	0.0014
313.15	30000	0.0275	0.0017
333.15	100	0.00785	0.00047
333.15	10000	0.00943	0.00056
333.15	20000	0.011	0.001
333.15	30000	0.0131	0.0008

System: 2,6,10,15,19,23-hexamethyltetracosane; phases: Liquid
Property: Mass density, kg/m3 (Liquid); method: Constant-volume piezometry
Temperature, K	Pressure, kPa	Mass density, kg/m3	uncertainty
273.15	100	819	7
273.15	10000	824	7
273.15	20000	830	7
273.15	30000	835	7
293.15	100	809	7
293.15	10000	814	7
293.15	20000	819	7
293.15	30000	823	7
313.15	100	795	6
313.15	10000	800	6
313.15	20000	806	7
313.15	30000	812	7
333.15	100	782	6
333.15	10000	789	6
333.15	20000	795	6
333.15	30000	802	7

System: butane + 2,6,10,15,19,23-hexamethyltetracosane; phases: Liquid
Property: Viscosity, Pa*s (Liquid); method: Falling or rolling sphere viscometry
Temperature, K	Mole fraction of 2,6,10,15,19,23-hexamethyltetracosane	Pressure, kPa	Viscosity, Pa*s	uncertainty
273.15	0	100	0.000203	1.2e-05
273.15	0	10000	0.000225	1.3e-05
273.15	0	20000	0.000247	1.5e-05
273.15	0	30000	0.000269	1.6e-05
273.15	0.154	1000	0.00134	9e-05
273.15	0.154	10000	0.0015	0.0001
273.15	0.154	20000	0.00166	0.0001
273.15	0.154	30000	0.00187	0.00013
273.15	0.29	1000	0.00414	0.00027
273.15	0.29	10000	0.00473	0.0003
273.15	0.29	20000	0.00542	0.00035
273.15	0.29	30000	0.00627	0.00044
273.15	0.518	1000	0.0166	0.001
273.15	0.518	10000	0.0194	0.0012
273.15	0.518	20000	0.0232	0.0014
273.15	0.518	30000	0.0277	0.0019
273.15	0.741	1000	0.0462	0.0028
273.15	0.741	10000	0.057	0.0034
273.15	0.741	20000	0.0722	0.0044
273.15	0.741	30000	0.0915	0.0057
293.15	0	200	0.00017	1e-05
293.15	0	10000	0.000184	1.1e-05
293.15	0	20000	0.000209	1.2e-05
293.15	0	30000	0.000232	1.4e-05
293.15	0.154	1000	0.000973	6e-05
293.15	0.154	10000	0.00106	7e-05
293.15	0.154	20000	0.00119	7e-05
293.15	0.154	30000	0.00133	8e-05
293.15	0.29	1000	0.0026	0.0002
293.15	0.29	10000	0.00286	0.00018
293.15	0.29	20000	0.00333	0.00021
293.15	0.29	30000	0.00374	0.00024
293.15	0.518	1000	0.00784	0.00047
293.15	0.518	10000	0.00903	0.00055
293.15	0.518	20000	0.0107	0.0006
293.15	0.518	30000	0.0129	0.0008
293.15	0.741	1000	0.0179	0.0011
293.15	0.741	10000	0.0218	0.0013
293.15	0.741	20000	0.0261	0.0016
293.15	0.741	30000	0.0311	0.002
313.15	0	400	0.000143	9e-06
313.15	0	10000	0.00016	1e-05
313.15	0	20000	0.000184	1.1e-05
313.15	0	30000	0.000202	1.2e-05
313.15	0.154	1000	0.000757	4.6e-05
313.15	0.154	10000	0.000821	5e-05
313.15	0.154	20000	0.000905	5.6e-05
313.15	0.154	30000	0.00101	6e-05
313.15	0.29	1000	0.00175	0.00011
313.15	0.29	10000	0.00197	0.00012
313.15	0.29	20000	0.0022	0.0001
313.15	0.29	30000	0.0025	0.0002
313.15	0.544	1000	0.00508	0.0003
313.15	0.544	10000	0.00587	0.00035
313.15	0.544	20000	0.00684	0.00041
313.15	0.544	30000	0.00807	0.00049
313.15	0.753	1000	0.00853	0.00051
313.15	0.753	10000	0.0101	0.0006
313.15	0.753	20000	0.0121	0.0007
313.15	0.753	30000	0.0143	0.0009
333.15	0	600	0.000118	7e-06
333.15	0	10000	0.000133	8e-06
333.15	0	20000	0.000153	9e-06
333.15	0	30000	0.000172	1e-05
333.15	0.154	1000	0.00058	4e-05
333.15	0.154	10000	0.000614	3.7e-05
333.15	0.154	20000	0.00068	4e-05
333.15	0.154	30000	0.000744	4.6e-05
333.15	0.29	1000	0.0013	0.0001
333.15	0.29	10000	0.0014	0.0001
333.15	0.29	20000	0.00154	9e-05
333.15	0.29	30000	0.00173	0.00011
333.15	0.544	1000	0.00318	0.00019
333.15	0.544	10000	0.00356	0.00021
333.15	0.544	20000	0.00412	0.00025
333.15	0.544	30000	0.0048	0.0003
333.15	0.753	1000	0.00518	0.00031
333.15	0.753	10000	0.00581	0.00035
333.15	0.753	20000	0.00674	0.0004
333.15	0.753	30000	0.008	0.001

System: butane + 2,6,10,15,19,23-hexamethyltetracosane; phases: Liquid
Property: Mass density, kg/m3 (Liquid); method: Constant-volume piezometry
Temperature, K	Mole fraction of 2,6,10,15,19,23-hexamethyltetracosane	Pressure, kPa	Mass density, kg/m3	uncertainty
273.15	0	100	601	5
273.15	0	10000	612	5
273.15	0	20000	622	5
273.15	0	30000	631	5
273.15	0.154	1000	719	6
273.15	0.154	10000	726	6
273.15	0.154	20000	733	6
273.15	0.154	30000	739	6
273.15	0.29	1000	758	6
273.15	0.29	10000	765	6
273.15	0.29	20000	771	6
273.15	0.29	30000	775	6
273.15	0.518	1000	792	6
273.15	0.518	10000	798	6
273.15	0.518	20000	804	7
273.15	0.518	30000	808	7
273.15	0.741	1000	808	7
273.15	0.741	10000	815	7
273.15	0.741	20000	820	7
273.15	0.741	30000	825	7
293.15	0	200	578	5
293.15	0	10000	592	5
293.15	0	20000	605	5
293.15	0	30000	614	5
293.15	0.154	1000	702	6
293.15	0.154	10000	710	6
293.15	0.154	20000	717	6
293.15	0.154	30000	724	6
293.15	0.29	1000	742	6
293.15	0.29	10000	750	6
293.15	0.29	20000	757	6
293.15	0.29	30000	762	6
293.15	0.518	1000	778	6
293.15	0.518	10000	784	6
293.15	0.518	20000	790	6
293.15	0.518	30000	795	6
293.15	0.741	1000	795	6
293.15	0.741	10000	802	6
293.15	0.741	20000	807	7
293.15	0.741	30000	812	7
313.15	0	400	555	5
313.15	0	10000	572	5
313.15	0	20000	586	5
313.15	0	30000	598	5
313.15	0.154	1000	686	6
313.15	0.154	10000	695	6
313.15	0.154	20000	702	6
313.15	0.154	30000	710	6
313.15	0.29	1000	727	6
313.15	0.29	10000	736	6
313.15	0.29	20000	744	6
313.15	0.29	30000	750	6
313.15	0.544	1000	765	6
313.15	0.544	10000	771	6
313.15	0.544	20000	777	6
313.15	0.544	30000	783	6
313.15	0.753	1000	784	6
313.15	0.753	10000	791	6
313.15	0.753	20000	798	6
313.15	0.753	30000	802	7
333.15	0	600	529	4
333.15	0	10000	550	5
333.15	0	20000	567	5
333.15	0	30000	580	5
333.15	0.154	1000	671	6
333.15	0.154	10000	681	6
333.15	0.154	20000	688	6
333.15	0.154	30000	697	6
333.15	0.29	1000	713	6
333.15	0.29	10000	722	6
333.15	0.29	20000	732	6
333.15	0.29	30000	738	6
333.15	0.544	1000	752	6
333.15	0.544	10000	758	6
333.15	0.544	20000	765	6
333.15	0.544	30000	772	6
333.15	0.753	1000	773	6
333.15	0.753	10000	779	6
333.15	0.753	20000	785	6
333.15	0.753	30000	791	6

System: hexane + 2,6,10,15,19,23-hexamethyltetracosane; phases: Liquid
Property: Viscosity, Pa*s (Liquid); method: Falling or rolling sphere viscometry
Temperature, K	Mole fraction of 2,6,10,15,19,23-hexamethyltetracosane	Pressure, kPa	Viscosity, Pa*s	uncertainty
273.15	0	100	0.000382	2.3e-05
273.15	0	10000	0.000421	2.5e-05
273.15	0	20000	0.000456	2.7e-05
273.15	0	30000	0.000492	2.9e-05
273.15	0.235	100	0.00334	0.00023
273.15	0.235	10000	0.00388	0.00025
273.15	0.235	20000	0.00443	0.00028
273.15	0.235	30000	0.00516	0.00045
273.15	0.511	100	0.0169	0.001
273.15	0.511	10000	0.0209	0.0013
273.15	0.511	20000	0.026	0.002
273.15	0.511	30000	0.0331	0.0022
273.15	0.743	100	0.0453	0.0028
273.15	0.743	10000	0.0585	0.0035
273.15	0.743	20000	0.077	0.005
273.15	0.743	30000	0.0971	0.0061
293.15	0	100	0.00031	2e-05
293.15	0	10000	0.00034	2e-05
293.15	0	20000	0.000375	2.2e-05
293.15	0	30000	0.000407	2.4e-05
293.15	0.235	100	0.00191	0.00012
293.15	0.235	10000	0.00226	0.00014
293.15	0.235	20000	0.00266	0.00016
293.15	0.235	30000	0.00309	0.00021
293.15	0.511	100	0.00776	0.00046
293.15	0.511	10000	0.00951	0.00057
293.15	0.511	20000	0.0116	0.0007
293.15	0.511	30000	0.0142	0.0009
293.15	0.743	100	0.0175	0.0011
293.15	0.743	10000	0.0212	0.0013
293.15	0.743	20000	0.0258	0.0016
293.15	0.743	30000	0.0311	0.0021
313.15	0	100	0.000257	1.5e-05
313.15	0	10000	0.000287	1.7e-05
313.15	0	20000	0.000317	1.9e-05
313.15	0	30000	0.000351	2.1e-05
313.15	0.235	100	0.00136	8e-05
313.15	0.235	10000	0.00158	0.0001
313.15	0.235	20000	0.00183	0.00011
313.15	0.235	30000	0.00209	0.00013
313.15	0.511	100	0.00415	0.00025
313.15	0.511	10000	0.00509	0.00031
313.15	0.511	20000	0.00596	0.00036
313.15	0.511	30000	0.00695	0.00043
313.15	0.743	100	0.00825	0.00049
313.15	0.743	10000	0.0101	0.0006
313.15	0.743	20000	0.0123	0.0007
313.15	0.743	30000	0.0147	0.0009
333.15	0	100	0.000218	1.3e-05
333.15	0	10000	0.000241	1.4e-05
333.15	0	20000	0.000266	1.6e-05
333.15	0	30000	0.000291	1.7e-05
333.15	0.235	100	0.000996	6e-05
333.15	0.235	10000	0.00118	7e-05
333.15	0.235	20000	0.00132	8e-05
333.15	0.235	30000	0.0015	0.0001
333.15	0.511	100	0.00262	0.00016
333.15	0.511	10000	0.00312	0.00019
333.15	0.511	20000	0.0036	0.0002
333.15	0.511	30000	0.00418	0.00025
333.15	0.743	100	0.00464	0.00028
333.15	0.743	10000	0.00563	0.00034
333.15	0.743	20000	0.00666	0.0004
333.15	0.743	30000	0.00782	0.00047

System: hexane + 2,6,10,15,19,23-hexamethyltetracosane; phases: Liquid
Property: Mass density, kg/m3 (Liquid); method: Constant-volume piezometry
Temperature, K	Mole fraction of 2,6,10,15,19,23-hexamethyltetracosane	Pressure, kPa	Mass density, kg/m3	uncertainty
273.15	0	100	678	6
273.15	0	10000	686	6
273.15	0	20000	693	6
273.15	0	30000	700	6
273.15	0.235	100	745	6
273.15	0.235	10000	751	6
273.15	0.235	20000	755	6
273.15	0.235	30000	761	6
273.15	0.511	100	792	6
273.15	0.511	10000	797	6
273.15	0.511	20000	799	6
273.15	0.511	30000	804	7
273.15	0.743	100	810	7
273.15	0.743	10000	816	7
273.15	0.743	20000	818	7
273.15	0.743	30000	824	7
293.15	0	100	660	5
293.15	0	10000	670	5
293.15	0	20000	678	6
293.15	0	30000	685	6
293.15	0.235	100	731	6
293.15	0.235	10000	738	6
293.15	0.235	20000	743	6
293.15	0.235	30000	749	6
293.15	0.511	100	778	6
293.15	0.511	10000	783	6
293.15	0.511	20000	787	6
293.15	0.511	30000	792	6
293.15	0.743	100	797	6
293.15	0.743	10000	803	7
293.15	0.743	20000	807	7
293.15	0.743	30000	813	7
313.15	0	100	642	5
313.15	0	10000	653	5
313.15	0	20000	662	5
313.15	0	30000	671	5
313.15	0.235	100	717	6
313.15	0.235	10000	725	6
313.15	0.235	20000	731	6
313.15	0.235	30000	737	6
313.15	0.511	100	764	6
313.15	0.511	10000	770	6
313.15	0.511	20000	775	6
313.15	0.511	30000	781	6
313.15	0.743	100	784	6
313.15	0.743	10000	790	6
313.15	0.743	20000	796	6
313.15	0.743	30000	802	7
333.15	0	100	623	5
333.15	0	10000	636	5
333.15	0	20000	647	5
333.15	0	30000	656	5
333.15	0.235	100	703	6
333.15	0.235	10000	712	6
333.15	0.235	20000	719	6
333.15	0.235	30000	725	6
333.15	0.511	100	750	6
333.15	0.511	10000	757	6
333.15	0.511	20000	763	6
333.15	0.511	30000	770	6
333.15	0.743	100	771	6
333.15	0.743	10000	778	6
333.15	0.743	20000	785	6
333.15	0.743	30000	791	6

System: 2,6,10,15,19,23-hexamethyltetracosane + octane; phases: Liquid
Property: Viscosity, Pa*s (Liquid); method: Falling or rolling sphere viscometry
Temperature, K	Mole fraction of 2,6,10,15,19,23-hexamethyltetracosane	Pressure, kPa	Viscosity, Pa*s	uncertainty
273.15	0	100	0.000705	4.2e-05
273.15	0	10000	0.000793	4.7e-05
273.15	0	20000	0.000871	5.2e-05
273.15	0	30000	0.000971	5.8e-05
273.15	0.238	100	0.00417	0.00029
273.15	0.238	10000	0.0048	0.0003
273.15	0.238	20000	0.00555	0.00035
273.15	0.238	30000	0.00637	0.00054
273.15	0.543	100	0.022	0.001
273.15	0.543	10000	0.0276	0.0017
273.15	0.543	20000	0.0339	0.002
273.15	0.543	30000	0.0414	0.0026
273.15	0.709	100	0.042	0.003
273.15	0.709	10000	0.0542	0.0033
273.15	0.709	20000	0.0677	0.0042
273.15	0.709	30000	0.0845	0.0055
273.15	1	100	0.1166	0.0076
273.15	1	10000	0.1524	0.0105
273.15	1	20000	0.1994	0.0146
273.15	1	30000	0.2614	0.0205
293.15	0	100	0.000544	3.2e-05
293.15	0	10000	0.000596	3.5e-05
293.15	0	20000	0.000659	3.9e-05
293.15	0	30000	0.000717	4.3e-05
293.15	0.238	100	0.00243	0.00015
293.15	0.238	10000	0.00282	0.00017
293.15	0.238	20000	0.00321	0.0002
293.15	0.238	30000	0.00364	0.00023
293.15	0.492	100	0.00743	0.00045
293.15	0.492	10000	0.00882	0.00053
293.15	0.492	20000	0.0104	0.0006
293.15	0.492	30000	0.0123	0.0008
293.15	0.709	100	0.0156	0.0009
293.15	0.709	10000	0.0191	0.0012
293.15	0.709	20000	0.0238	0.0014
293.15	0.709	30000	0.0295	0.0019
293.15	1	100	0.0353	0.0022
293.15	1	10000	0.0436	0.0026
293.15	1	20000	0.054	0.003
293.15	1	30000	0.0656	0.0047
313.15	0	100	0.000429	2.6e-05
313.15	0	10000	0.000483	2.9e-05
313.15	0	20000	0.000536	3.2e-05
313.15	0	30000	0.000593	3.5e-05
313.15	0.238	100	0.0016	0.0001
313.15	0.238	10000	0.00186	0.00011
313.15	0.238	20000	0.00216	0.00013
313.15	0.238	30000	0.00244	0.00015
313.15	0.492	100	0.00427	0.00025
313.15	0.492	10000	0.00483	0.00029
313.15	0.492	20000	0.00556	0.00033
313.15	0.492	30000	0.00649	0.0004
313.15	0.709	100	0.00768	0.00046
313.15	0.709	10000	0.00955	0.00057
313.15	0.709	20000	0.0116	0.0007
313.15	0.709	30000	0.0135	0.0008
313.15	1	100	0.0154	0.0009
313.15	1	10000	0.0183	0.0011
313.15	1	20000	0.0227	0.0014
313.15	1	30000	0.0275	0.0017
333.15	0	100	0.000351	2.1e-05
333.15	0	10000	0.000388	2.3e-05
333.15	0	20000	0.000441	2.6e-05
333.15	0	30000	0.000482	2.9e-05
333.15	0.238	100	0.00125	7e-05
333.15	0.238	10000	0.00145	9e-05
333.15	0.238	20000	0.00165	0.0001
333.15	0.238	30000	0.00185	0.00011
333.15	0.492	100	0.00278	0.00017
333.15	0.492	10000	0.00318	0.00019
333.15	0.492	20000	0.00362	0.00022
333.15	0.492	30000	0.00407	0.00025
333.15	0.709	100	0.00445	0.00027
333.15	0.709	10000	0.00543	0.00033
333.15	0.709	20000	0.00631	0.00038
333.15	0.709	30000	0.00738	0.00044
333.15	1	100	0.00785	0.00047
333.15	1	10000	0.00943	0.00056
333.15	1	20000	0.011	0.001
333.15	1	30000	0.0131	0.0008

System: 2,6,10,15,19,23-hexamethyltetracosane + octane; phases: Liquid
Property: Mass density, kg/m3 (Liquid); method: Constant-volume piezometry
Temperature, K	Mole fraction of 2,6,10,15,19,23-hexamethyltetracosane	Pressure, kPa	Mass density, kg/m3	uncertainty
273.15	0	100	719	6
273.15	0	10000	726	6
273.15	0	20000	733	6
273.15	0	30000	739	6
273.15	0.238	100	770	6
273.15	0.238	10000	777	6
273.15	0.238	20000	783	6
273.15	0.238	30000	788	6
273.15	0.543	100	800	6
273.15	0.543	10000	809	7
273.15	0.543	20000	811	7
273.15	0.543	30000	817	7
273.15	0.709	100	809	7
273.15	0.709	10000	817	7
273.15	0.709	20000	820	7
273.15	0.709	30000	824	7
273.15	1	100	819	7
273.15	1	10000	824	7
273.15	1	20000	830	7
273.15	1	30000	835	7
293.15	0	100	703	6
293.15	0	10000	711	6
293.15	0	20000	718	6
293.15	0	30000	725	6
293.15	0.238	100	755	6
293.15	0.238	10000	761	6
293.15	0.238	20000	768	6
293.15	0.238	30000	774	6
293.15	0.492	100	782	6
293.15	0.492	10000	790	6
293.15	0.492	20000	796	6
293.15	0.492	30000	800	6
293.15	0.709	100	798	6
293.15	0.709	10000	802	6
293.15	0.709	20000	808	7
293.15	0.709	30000	814	7
293.15	1	100	809	7
293.15	1	10000	814	7
293.15	1	20000	819	7
293.15	1	30000	823	7
313.15	0	100	687	6
313.15	0	10000	696	6
313.15	0	20000	704	6
313.15	0	30000	712	6
313.15	0.238	100	743	6
313.15	0.238	10000	749	6
313.15	0.238	20000	756	6
313.15	0.238	30000	762	6
313.15	0.492	100	770	6
313.15	0.492	10000	778	6
313.15	0.492	20000	783	6
313.15	0.492	30000	789	6
313.15	0.709	100	788	6
313.15	0.709	10000	792	6
313.15	0.709	20000	797	6
313.15	0.709	30000	803	7
313.15	1	100	795	6
313.15	1	10000	800	6
313.15	1	20000	806	7
313.15	1	30000	812	7
333.15	0	100	670	5
333.15	0	10000	681	6
333.15	0	20000	690	6
333.15	0	30000	698	6
333.15	0.238	100	731	6
333.15	0.238	10000	739	6
333.15	0.238	20000	747	6
333.15	0.238	30000	754	6
333.15	0.492	100	754	6
333.15	0.492	10000	763	6
333.15	0.492	20000	771	6
333.15	0.492	30000	779	6
333.15	0.709	100	770	6
333.15	0.709	10000	780	6
333.15	0.709	20000	787	6
333.15	0.709	30000	792	6
333.15	1	100	782	6
333.15	1	10000	789	6
333.15	1	20000	795	6
333.15	1	30000	802	7
