Measured thermophysical data. Densities, Viscosities, and Refractive Indices of Mixtures of Hexane with Cyclohexane, Decane, Hexadecane, and Squalane at 298.15K
Source: Int. J. Thermophys., 2005, 10.1007/s10765-005-5572-8
Compound 1: hexane, C6H14, InChI=1S/C6H14/c1-3-5-6-4-2/h3-6H2,1-2H3, purity 99%
Compound 2: cyclohexane, C6H12, InChI=1S/C6H12/c1-2-4-6-5-3-1/h1-6H2, purity 99%
Compound 3: decane, C10H22, InChI=1S/C10H22/c1-3-5-7-9-10-8-6-4-2/h3-10H2,1-2H3, purity 99%
Compound 4: hexadecane, C16H34, InChI=1S/C16H34/c1-3-5-7-9-11-13-15-16-14-12-10-8-6-4-2/h3-16H2,1-2H3, purity 99%
Compound 5: 2,6,10,15,19,23-hexamethyltetracosane, C30H62, InChI=1S/C30H62/c1-25(2)15-11-19-29(7)23-13-21-27(5)17-9-10-18-28(6)22-14-24-30(8)20-12-16-26(3)4/h25-30H,9-24H2,1-8H3, purity 99%

System: hexane; phases: Liquid
Property: Refractive index (Na D-line) (Liquid); method: Standard Abbe refractometry
Temperature, K	Pressure, kPa	Refractive index (Na D-line)	uncertainty
298.15	101.325	1.3745	0.0055

System: hexane; phases: Liquid
Property: Viscosity, Pa*s (Liquid); method: CAPTUB:UFactor:8
Temperature, K	Pressure, kPa	Viscosity, Pa*s	uncertainty
298.15	101	0.000294	1.9e-05

System: hexane; phases: Liquid
Property: Mass density, kg/m3 (Liquid); method: PYCNOM:UFactor:4
Temperature, K	Pressure, kPa	Mass density, kg/m3	uncertainty
298.15	101	654.8	1.1

System: cyclohexane; phases: Liquid
Property: Refractive index (Na D-line) (Liquid); method: Standard Abbe refractometry
Temperature, K	Pressure, kPa	Refractive index (Na D-line)	uncertainty
298.15	101.325	1.4235	0.0057

System: cyclohexane; phases: Liquid
Property: Viscosity, Pa*s (Liquid); method: CAPTUB:UFactor:8
Temperature, K	Pressure, kPa	Viscosity, Pa*s	uncertainty
298.15	101	0.000898	4.5e-05

System: cyclohexane; phases: Liquid
Property: Mass density, kg/m3 (Liquid); method: PYCNOM:UFactor:4
Temperature, K	Pressure, kPa	Mass density, kg/m3	uncertainty
298.15	101	773.7	1.3

System: decane; phases: Liquid
Property: Refractive index (Na D-line) (Liquid); method: Standard Abbe refractometry
Temperature, K	Pressure, kPa	Refractive index (Na D-line)	uncertainty
298.15	101.325	1.41	0.0057

System: decane; phases: Liquid
Property: Viscosity, Pa*s (Liquid); method: CAPTUB:UFactor:8
Temperature, K	Pressure, kPa	Viscosity, Pa*s	uncertainty
298.15	101	0.000859	4.3e-05

System: decane; phases: Liquid
Property: Mass density, kg/m3 (Liquid); method: PYCNOM:UFactor:4
Temperature, K	Pressure, kPa	Mass density, kg/m3	uncertainty
298.15	101	726.2	1.2

System: hexadecane; phases: Liquid
Property: Refractive index (Na D-line) (Liquid); method: Standard Abbe refractometry
Temperature, K	Pressure, kPa	Refractive index (Na D-line)	uncertainty
298.15	101.325	1.434	0.0058

System: hexadecane; phases: Liquid
Property: Viscosity, Pa*s (Liquid); method: CAPTUB:UFactor:8
Temperature, K	Pressure, kPa	Viscosity, Pa*s	uncertainty
298.15	101	0.003039	0.000137

System: hexadecane; phases: Liquid
Property: Mass density, kg/m3 (Liquid); method: PYCNOM:UFactor:4
Temperature, K	Pressure, kPa	Mass density, kg/m3	uncertainty
298.15	101	770.6	1.3

System: 2,6,10,15,19,23-hexamethyltetracosane; phases: Liquid
Property: Refractive index (Na D-line) (Liquid); method: Standard Abbe refractometry
Temperature, K	Pressure, kPa	Refractive index (Na D-line)	uncertainty
298.15	101.325	1.4474	0.0058

System: 2,6,10,15,19,23-hexamethyltetracosane; phases: Liquid
Property: Viscosity, Pa*s (Liquid); method: CAPTUB:UFactor:8
Temperature, K	Pressure, kPa	Viscosity, Pa*s	uncertainty
298.15	101	0.031123	0.001104

System: 2,6,10,15,19,23-hexamethyltetracosane; phases: Liquid
Property: Mass density, kg/m3 (Liquid); method: PYCNOM:UFactor:4
Temperature, K	Pressure, kPa	Mass density, kg/m3	uncertainty
298.15	101	805.4	1.4

System: hexane + cyclohexane; phases: Liquid
Fixed: Temperature, K = 298.15
Fixed: Pressure, kPa = 101
Property: Viscosity, Pa*s (Liquid); method: CAPTUB:UFactor:8
Mole fraction of cyclohexane	Viscosity, Pa*s	uncertainty
0	0.000294	1.9e-05
0.0357	0.000295	1.9e-05
0.1127	0.000301	1.9e-05
0.2	0.000312	2e-05
0.3288	0.000342	2.1e-05
0.462	0.000405	2.4e-05
0.5424	0.000451	2.6e-05
0.577	0.000472	2.7e-05
0.6703	0.000539	3e-05
0.7543	0.000603	3.2e-05
0.8703	0.00071	3.7e-05
0.9451	0.000794	4.1e-05
0.974	0.000842	4.3e-05
0.9935	0.000894	4.5e-05
1	0.000898	4.5e-05

System: hexane + cyclohexane; phases: Liquid
Fixed: Temperature, K = 298.15
Fixed: Pressure, kPa = 101
Property: Mass density, kg/m3 (Liquid); method: PYCNOM:UFactor:4
Mole fraction of cyclohexane	Mass density, kg/m3	uncertainty
0	654.8	1.1
0.0357	658.2	1.1
0.1127	665.9	1.1
0.2	674.9	1.1
0.3288	688.6	1.2
0.462	703.5	1.2
0.5424	712.9	1.2
0.577	717	1.2
0.6703	728.4	1.2
0.7543	739.2	1.3
0.8703	754.9	1.3
0.9451	765.5	1.3
0.974	769.7	1.3
0.9935	772.7	1.3
1	773.7	1.3

System: hexane + decane; phases: Liquid
Fixed: Temperature, K = 298.15
Fixed: Pressure, kPa = 101
Property: Viscosity, Pa*s (Liquid); method: CAPTUB:UFactor:8
Mole fraction of decane	Viscosity, Pa*s	uncertainty
0	0.000294	1.9e-05
0.021	0.000296	1.9e-05
0.0659	0.000307	2e-05
0.1584	0.000337	2.1e-05
0.233	0.000355	2.2e-05
0.2761	0.000377	2.3e-05
0.3493	0.000417	2.4e-05
0.4506	0.000471	2.7e-05
0.541	0.000518	2.9e-05
0.6382	0.000567	3.1e-05
0.7836	0.000657	3.5e-05
0.9095	0.000772	4e-05
0.9654	0.000823	4.2e-05
0.9936	0.000855	4.3e-05
1	0.000859	4.3e-05

System: hexane + decane; phases: Liquid
Fixed: Pressure, kPa = 101
Fixed: Temperature, K = 298.15
Property: Refractive index (Na D-line) (Liquid); method: Standard Abbe refractometry
Mole fraction of decane	Refractive index (Na D-line)	uncertainty
0	1.3745	0.0055
0.021	1.3755	0.0055
0.0659	1.378	0.0056
0.1584	1.382	0.0056
0.233	1.3854	0.0056
0.2761	1.3871	0.0056
0.3493	1.39	0.0056
0.4506	1.394	0.0056
0.541	1.3973	0.0056
0.6382	1.4004	0.0056
0.7836	1.4045	0.0057
0.9095	1.408	0.0057
0.9654	1.4095	0.0057
0.9936	1.4099	0.0057
1	1.41	0.0057

System: hexane + decane; phases: Liquid
Fixed: Temperature, K = 298.15
Fixed: Pressure, kPa = 101
Property: Mass density, kg/m3 (Liquid); method: PYCNOM:UFactor:4
Mole fraction of decane	Mass density, kg/m3	uncertainty
0	654.8	1.1
0.021	657.1	1.1
0.0659	662	1.1
0.1584	671.3	1.1
0.233	678.1	1.1
0.2761	681.8	1.1
0.3493	687.8	1.2
0.4506	695.3	1.2
0.541	701.4	1.2
0.6382	707.4	1.2
0.7836	715.6	1.2
0.9095	722	1.2
0.9654	724.7	1.2
0.9936	726	1.2
1	726.2	1.2

System: hexane + hexadecane; phases: Liquid
Fixed: Temperature, K = 298.15
Fixed: Pressure, kPa = 101
Property: Viscosity, Pa*s (Liquid); method: CAPTUB:UFactor:8
Mole fraction of hexadecane	Viscosity, Pa*s	uncertainty
0	0.000294	1.9e-05
0.0284	0.000322	2e-05
0.0757	0.000382	2.3e-05
0.1349	0.000473	2.7e-05
0.1842	0.000559	3.1e-05
0.266	0.000703	3.7e-05
0.3427	0.000864	4.4e-05
0.4864	0.001205	5.8e-05
0.503	0.00124	6e-05
0.6779	0.001735	8.1e-05
0.7546	0.002022	9.3e-05
0.8927	0.002562	0.000116
0.9468	0.002805	0.000127
0.9902	0.003012	0.000135
1	0.003039	0.000137

System: hexane + hexadecane; phases: Liquid
Fixed: Pressure, kPa = 101
Fixed: Temperature, K = 298.15
Property: Refractive index (Na D-line) (Liquid); method: Standard Abbe refractometry
Mole fraction of hexadecane	Refractive index (Na D-line)	uncertainty
0	1.3745	0.0055
0.0284	1.3784	0.0056
0.0757	1.386	0.0056
0.1349	1.395	0.0056
0.1842	1.4006	0.0056
0.266	1.4087	0.0057
0.3427	1.4147	0.0057
0.4864	1.4262	0.0057
0.503	1.4266	0.0057
0.6779	1.4318	0.0058
0.7546	1.432	0.0058
0.8927	1.4322	0.0058
0.9468	1.4332	0.0058
0.9902	1.434	0.0058
1	1.434	0.0058

System: hexane + hexadecane; phases: Liquid
Fixed: Temperature, K = 298.15
Fixed: Pressure, kPa = 101
Property: Mass density, kg/m3 (Liquid); method: PYCNOM:UFactor:4
Mole fraction of hexadecane	Mass density, kg/m3	uncertainty
0	654.8	1.1
0.0284	662.1	1.1
0.0757	673.3	1.1
0.1349	685.7	1.2
0.1842	694.9	1.2
0.266	708.4	1.2
0.3427	719.1	1.2
0.4864	735.5	1.2
0.503	737.1	1.3
0.6779	751.8	1.3
0.7546	757	1.3
0.8927	765.1	1.3
0.9468	768	1.3
0.9902	770.1	1.3
1	770.6	1.3

System: hexane + 2,6,10,15,19,23-hexamethyltetracosane; phases: Liquid
Fixed: Temperature, K = 298.15
Fixed: Pressure, kPa = 101
Property: Viscosity, Pa*s (Liquid); method: CAPTUB:UFactor:8
Mole fraction of 2,6,10,15,19,23-hexamethyltetracosane	Viscosity, Pa*s	uncertainty
0	0.000294	0.000201
0.0144	0.000405	0.000201
0.0481	0.000593	0.000202
0.0748	0.000727	0.000203
0.1218	0.000971	0.000205
0.1779	0.001413	0.000209
0.2858	0.002923	0.000233
0.3695	0.004685	0.000274
0.4258	0.006068	0.000305
0.5661	0.010154	0.000401
0.718	0.015592	0.000577
0.807	0.0196	0.000713
0.8939	0.024318	0.000873
0.9593	0.028409	0.001012
0.9943	0.030743	0.001091
1	0.031123	0.001104

System: hexane + 2,6,10,15,19,23-hexamethyltetracosane; phases: Liquid
Fixed: Pressure, kPa = 101
Fixed: Temperature, K = 298.15
Property: Refractive index (Na D-line) (Liquid); method: Standard Abbe refractometry
Mole fraction of 2,6,10,15,19,23-hexamethyltetracosane	Refractive index (Na D-line)	uncertainty
0	1.3745	0.0055
0.0144	1.3798	0.0056
0.0481	1.3904	0.0056
0.0748	1.3976	0.0056
0.1218	1.4068	0.0057
0.1779	1.4153	0.0057
0.2858	1.4244	0.0057
0.3695	1.431	0.0058
0.4258	1.4349	0.0058
0.5661	1.4435	0.0058
0.718	1.4468	0.0058
0.807	1.4468	0.0058
0.8939	1.447	0.0058
0.9593	1.447	0.0058
0.9943	1.4472	0.0058
1	1.4474	0.0058

System: hexane + 2,6,10,15,19,23-hexamethyltetracosane; phases: Liquid
Fixed: Temperature, K = 298.15
Fixed: Pressure, kPa = 101
Property: Mass density, kg/m3 (Liquid); method: PYCNOM:UFactor:4
Mole fraction of 2,6,10,15,19,23-hexamethyltetracosane	Mass density, kg/m3	uncertainty
0	654.8	1.1
0.0144	663.9	1.1
0.0481	682.1	1.1
0.0748	694.2	1.2
0.1218	711.9	1.2
0.1779	728.5	1.2
0.2858	751.4	1.3
0.3695	764	1.3
0.4258	770.7	1.3
0.5661	783.6	1.3
0.718	793.5	1.4
0.807	798	1.4
0.8939	801.7	1.4
0.9593	804.1	1.4
0.9943	805.2	1.4
1	805.4	1.4
