Measured thermophysical data. Viscosity of Molten Sodium Nitrate
Source: Int. J. Thermophys., 2006, 10.1007/s10765-006-0119-1
Compound 1: sodium nitrate, NNaO3, InChI=1S/NO3.Na/c2-1(3)4;/q-1;+1

System: sodium nitrate; phases: Liquid
Fixed: Pressure, kPa = 101.325
Property: Viscosity, Pa*s (Liquid); method: Oscillating Cup
Temperature, K	Viscosity, Pa*s	uncertainty
590.3	0.002854	0.000114
599.3	0.00274	0.000112
600	0.002658	0.000109
600.3	0.002638	0.000107
613.2	0.002437	9.8e-05
640.9	0.002155	8.6e-05
653.6	0.00205	8.2e-05
673.2	0.001811	7.3e-05
676.8	0.001768	7.1e-05
691.9	0.001719	6.9e-05
709.7	0.001627	6.5e-05
714.6	0.001537	6.2e-05
732.4	0.001564	6.3e-05
752.1	0.00143	5.7e-05
