Measured thermophysical data. Measurements of Vapor Pressures from 280 to 369 K and (p, rho, T) Properties from 340 to 400 K at Pressures to 200 MPa for Propane
Source: Int. J. Thermophys., 2006, 10.1007/s10765-006-0088-4
Compound 1: propane, C3H8, InChI=1S/C3H8/c1-3-2/h3H2,1-2H3

System: propane; phases: Liquid, Gas
Property: Vapor or sublimation pressure, kPa (Liquid); method: Closed cell (Static) method
Temperature, K	Vapor or sublimation pressure, kPa	uncertainty
280	583.1	1.2
300	999	2.1
320	1599.8	3.3
340	2432.2	5
360	3556.3	7.2
365	3894.1	7.9
367	4036.8	8.2
369	4184.4	8.5

System: propane; phases: Liquid
Property: Mass density, kg/m3 (Liquid); method: Bellows volumetry
Temperature, K	Pressure, kPa	Mass density, kg/m3	uncertainty
340	40000	521.92	0.58
340	50000	534.58	0.6
340	60000	545.76	0.61
340	70000	555.4	0.62
340	80000	564.13	0.63
340	90000	571.96	0.64
340	100000	579.21	0.65
340	120000	592	0.67
340	140000	603.23	0.68
340	160000	613.42	0.74
340	180000	622.47	0.76
340	200000	631.34	0.78
360	40000	504.75	0.56
360	50000	519.13	0.59
360	60000	531.24	0.6
360	70000	541.74	0.61
360	80000	551.28	0.62
360	90000	559.54	0.63
360	100000	567.52	0.64
360	120000	581.13	0.66
360	140000	593.24	0.67
360	160000	603.94	0.74
360	180000	613.6	0.75
360	200000	622.28	0.76
380	40000	486.9	0.54
380	50000	502.92	0.57
380	60000	516.27	0.59
380	70000	527.68	0.6
380	80000	537.77	0.61
380	90000	546.83	0.62
380	100000	555.08	0.63
380	120000	569.69	0.65
380	140000	582.4	0.66
380	160000	593.57	0.74
380	180000	603.76	0.75
380	200000	612.75	0.77
400	40000	469.52	0.52
400	50000	487.17	0.56
400	60000	501.88	0.58
400	70000	514.4	0.59
400	80000	525.29	0.6
400	90000	534.99	0.61
400	100000	543.68	0.62
400	120000	559.13	0.64
400	140000	572.43	0.65
400	160000	584.27	0.74
400	180000	594.86	0.75
400	200000	604.47	0.77

System: propane; phases: Liquid
Property: Mass density, kg/m3 (Liquid); method: Buoyancy - hydrostatic balance with magnetic suspension - one sinker
Temperature, K	Pressure, kPa	Mass density, kg/m3	uncertainty
340	20000	486.49	0.54
340	30000	506.41	0.56
360	20000	463.18	0.52
360	30000	486.97	0.55
380	20000	438.11	0.49
380	30000	466.65	0.53
400	20000	412.17	0.46
400	30000	446.42	0.51

System: propane; phases: Liquid
Fixed: Pressure, kPa = 10000
Property: Mass density, kg/m3 (Liquid); method: Buoyancy - hydrostatic balance with magnetic suspension - two sinkers
Temperature, K	Mass density, kg/m3	uncertainty
340	457.22	0.51
360	423.91	0.47
380	383.94	0.42
400	334.82	0.37

System: propane; phases: Liquid
Property: Mass density, kg/m3 (Liquid); method: Vibrating tube method
Temperature, K	Pressure, kPa	Mass density, kg/m3	uncertainty
340	3000	418.08	0.51
340	5000	433.15	0.54
360	5000	380.52	0.48
