Measured thermophysical data. Association in Dilute Aqueous Solution of Pyridine and Its Methyl Derivatives Studied by Cryoscopic Method
Source: Int. J. Thermophys., 2011, 10.1007/s10765-010-0792-y
Compound 1: water, H2O, InChI=1S/H2O/h1H2
Compound 2: pyridine, C5H5N, InChI=1S/C5H5N/c1-2-4-6-5-3-1/h1-5H
Compound 3: 3-methylpyridine, C6H7N, InChI=1S/C6H7N/c1-6-3-2-4-7-5-6/h2-5H,1H3
Compound 4: 4-methylpyridine, C6H7N, InChI=1S/C6H7N/c1-6-2-4-7-5-3-6/h2-5H,1H3
Compound 5: 2-methylpyridine, C6H7N, InChI=1S/C6H7N/c1-6-4-2-3-5-7-6/h2-5H,1H3
Compound 6: 2,6-dimethylpyridine, C7H9N, InChI=1S/C7H9N/c1-6-4-3-5-7(2)8-6/h3-5H,1-2H3

System: pyridine + water; phases: Liquid, Crystal
Fixed: Pressure, kPa = 101
Property: Solid-liquid equilibrium temperature, K (Liquid); method: VISOBS
Mole fraction of pyridine	Solid-liquid equilibrium temperature, K	uncertainty
0.0085	-1	0.5
0.0107	-1	0.5
0.0144	-1.5	0.5
0.0221	-2	0.5
0.0301	-2.5	0.5
0.0484	-3	0.5
0.0586	-3.5	0.5
0.0695	-4	0.5
0.0793	-4	0.5
0.1007	-4.5	0.5

System: 3-methylpyridine + water; phases: Liquid, Crystal
Fixed: Pressure, kPa = 101
Property: Solid-liquid equilibrium temperature, K (Liquid); method: VISOBS
Mole fraction of 3-methylpyridine	Solid-liquid equilibrium temperature, K	uncertainty
0.0071	-0.5	0.5
0.0089	-0.5	0.5
0.012	-1	0.5
0.0185	-1	0.5
0.0253	-1	0.5
0.0403	-1.5	0.5
0.0488	-1.5	0.5
0.058	-2	0.5
0.0663	-2	0.5
0.0845	-2	0.5
0.1035	-2	0.5

System: 4-methylpyridine + water; phases: Liquid, Crystal
Fixed: Pressure, kPa = 101
Property: Solid-liquid equilibrium temperature, K (Liquid); method: VISOBS
Mole fraction of 4-methylpyridine	Solid-liquid equilibrium temperature, K	uncertainty
0.0063	-1	0.5
0.0077	-1	0.5
0.0097	-1	0.5
0.0131	-1	0.5
0.0202	-1	0.5
0.0277	-1.5	0.5
0.0299	-1.5	0.5
0.0404	-2	0.5
0.0517	-2	0.5
0.062	-2	0.5
0.0777	-2	0.5
0.0933	-2	0.5
0.1038	-2.5	0.5

System: 2-methylpyridine + water; phases: Liquid, Crystal
Fixed: Pressure, kPa = 101
Property: Solid-liquid equilibrium temperature, K (Liquid); method: DTA
Mole fraction of 2-methylpyridine	Solid-liquid equilibrium temperature, K	uncertainty
0.0102	-1.71	0.5
0.0251	-2.26	0.5
0.0501	-3.14	0.5
0.0999	-4.16	0.5

System: 2,6-dimethylpyridine + water; phases: Liquid, Crystal
Fixed: Pressure, kPa = 101
Property: Solid-liquid equilibrium temperature, K (Liquid); method: DTA
Mole fraction of 2,6-dimethylpyridine	Solid-liquid equilibrium temperature, K	uncertainty
0.0101	-1.37	0.5
0.0255	-1.58	0.5
0.0501	-2.31	0.5
0.1001	-3.79	0.5
