Measured thermophysical data. Isobaric Vapor Liquid Equilibria of 1-Butanol p-Xylene System1
Source: Int. J. Thermophys., 2006, 10.1007/s10765-006-0018-5
Compound 1: butan-1-ol, C4H10O, InChI=1S/C4H10O/c1-2-3-4-5/h5H,2-4H2,1H3
Compound 2: 1,4-dimethylbenzene, C8H10, InChI=1S/C8H10/c1-7-3-5-8(2)6-4-7/h3-6H,1-2H3

System: butan-1-ol; phases: Liquid
Property: Refractive index (Na D-line) (Liquid); method: Standard Abbe refractometry
Temperature, K	Pressure, kPa	Refractive index (Na D-line)	uncertainty
298.15	101.325	1.3973	0.0008

System: butan-1-ol; phases: Liquid, Gas
Property: Vapor or sublimation pressure, kPa (Liquid); method: EBULLIO:UFactor:8
Temperature, K	Vapor or sublimation pressure, kPa	uncertainty
389.5	97.3	1.6

System: 1,4-dimethylbenzene; phases: Liquid
Property: Refractive index (Na D-line) (Liquid); method: Standard Abbe refractometry
Temperature, K	Pressure, kPa	Refractive index (Na D-line)	uncertainty
298.15	101.325	1.49325	0.00075

System: 1,4-dimethylbenzene; phases: Liquid, Gas
Property: Vapor or sublimation pressure, kPa (Liquid); method: EBULLIO:UFactor:8
Temperature, K	Vapor or sublimation pressure, kPa	uncertainty
410	97.3	1.6

System: butan-1-ol + 1,4-dimethylbenzene; phases: Liquid, Gas
Fixed: Pressure, kPa = 97.3
Property: Boiling temperature at pressure P, K (Liquid); method: EBULLIO:UFactor:8
Mole fraction of butan-1-ol	Boiling temperature at pressure P, K	uncertainty
0	410	0.3
0.0325	406.2	2.6
0.1	401.7	2
0.2358	395.9	1.5
0.34	393.2	0.9
0.4333	391.7	0.7
0.4717	391.3	0.6
0.5583	390.2	0.6
0.6117	389.7	0.5
0.65	389.4	0.4
0.6983	389.2	0.4
0.7333	389.1	0.3
0.7875	389.1	0.3
0.8117	389	0.3
0.8708	389.2	0.4
0.9317	389.4	0.3
1	389.5	0.3

System: butan-1-ol + 1,4-dimethylbenzene; phases: Liquid, Gas
Property: Azeotropic temperature, K (Liquid); method: By T(X) extreme
Pressure, kPa	Azeotropic temperature, K	uncertainty
97.3	389.05	0.37

System: butan-1-ol + 1,4-dimethylbenzene; phases: Gas, Liquid
Fixed: Pressure, kPa = 97.3
Property: Mole fraction of butan-1-ol (Gas); method: Index of refraction calibration data
Mole fraction of butan-1-ol	Mole fraction of butan-1-ol	uncertainty
0.0325	0.0775	0.0673
0.1	0.19	0.0766
0.2358	0.41	0.0719
0.34	0.5467	0.054
0.4333	0.5867	0.0453
0.4717	0.6183	0.0481
0.5583	0.6708	0.0446
0.6117	0.685	0.0432
0.65	0.7083	0.0455
0.6983	0.7317	0.0402
0.7333	0.7117	0.0476
0.7875	0.7833	0.0651
0.8117	0.8117	0.0476
0.8708	0.84	0.0518
0.9317	0.91	0.061

System: butan-1-ol + 1,4-dimethylbenzene; phases: Liquid, Gas
Property: Azeotropic composition: mole fraction of butan-1-ol (Liquid); method: By T or P extreme
Pressure, kPa	Azeotropic composition: mole fraction of butan-1-ol	uncertainty
97.3	0.769	0.05
