Measured thermophysical data. Isochoric Heat Capacities of Propane+Isobutane Mixtures at Temperatures from 280 to 420 K and at Pressures to 30 MPa
Source: Int. J. Thermophys., 2005, 10.1007/s10765-005-8592-5
Compound 1: propane, C3H8, InChI=1S/C3H8/c1-3-2/h3H2,1-2H3, purity 99.9%
Compound 2: 2-methylpropane, C4H10, InChI=1S/C4H10/c1-4(2)3/h4H,1-3H3, purity 99.9%

System: propane; phases: Fluid (supercritical or subcritical phases)
Property: Molar heat capacity at constant volume, J/K/mol (Fluid (supercritical or subcritical phases)); method: Vacuum adiabatic calorimetry
Temperature, K	Pressure, kPa	Molar heat capacity at constant volume, J/K/mol	uncertainty
270.15	4427	71.74357374	2.8662153
275.15	7953	71.25852192	2.8662153
280.15	11458	71.30261754	2.8662153
285.15	14939	72.62548614	2.91031092
290.15	18398	73.46330292	2.95440654
295.15	21836	74.56569342	2.99850216
300.15	25251	74.60978904	2.99850216
305.15	28640	74.34521532	2.99850216
310.15	6561	74.56569342	2.99850216
315.15	9049	75.22712772	2.99850216
320.15	11532	76.15313574	3.04259778
325.15	3660	77.96105616	3.13078902
325.15	14008	76.37361384	3.04259778
330.15	5594	78.75477732	3.17488464
330.15	16475	76.63818756	3.0866934
335.15	7530	78.31382112	3.13078902
335.15	18934	76.90276128	3.0866934
340.15	9468	77.69648244	3.13078902
340.15	21386	77.21143062	3.0866934
345.15	11404	77.25552624	3.0866934
345.15	23827	76.32951822	3.04259778
350.15	13339	79.46030724	3.17488464
350.15	26253	77.52009996	3.0866934
355.15	15273	77.3878131	3.0866934
355.15	28668	77.43190872	3.0866934
360.15	17203	77.74057806	3.13078902
365.15	19126	78.62249046	3.13078902
370.15	21044	79.1516379	3.17488464
375.15	5095	98.59780632	3.9686058
380.15	5744	93.0417582	3.7481277
385.15	6404	89.60229984	3.57174522
390.15	7072	86.07465024	3.43945836
395.15	7746	84.83997288	3.39536274
400.15	8425	80.43041088	5.64423936
405.15	9109	78.84296856	3.17488464
410.15	9795	79.98945468	3.21898026
420.15	11176	79.8130722	3.21898026
425.15	11869	81.75327948	3.26307588

System: 2-methylpropane; phases: Fluid (supercritical or subcritical phases)
Property: Molar heat capacity at constant volume, J/K/mol (Fluid (supercritical or subcritical phases)); method: Vacuum adiabatic calorimetry
Temperature, K	Pressure, kPa	Molar heat capacity at constant volume, J/K/mol	uncertainty
415.15	4254	222.0849262	8.9508188
415.15	4254	230.8032562	9.299552
420.15	4664	202.6721114	8.137108
420.15	4665	202.9627224	8.137108
425.15	5082	186.0491622	8.0208636
425.15	5083	187.0953618	8.3695968

System: propane + 2-methylpropane; phases: Fluid (supercritical or subcritical phases)
Property: Molar heat capacity at constant volume, J/K/mol (Fluid (supercritical or subcritical phases)); method: Vacuum adiabatic calorimetry
Temperature, K	Pressure, kPa	Mole fraction of propane	Molar heat capacity at constant volume, J/K/mol	uncertainty
270.15	4427	1	71.74357374	0.2204781
270.15	4579	0.498	82.79074335604	0.260798512116
275.15	7953	1	71.25852192	0.2204781
275.15	8198	0.498	81.61459320336	0.260798512116
280.15	11458	1	71.30261754	0.2204781
280.15	11759	0.498	82.79074335604	0.260798512116
285.15	14939	1	72.62548614	0.2204781
285.15	15256	0.498	84.27371528768	0.260798512116
290.15	18398	1	73.46330292	0.2204781
290.15	18687	0.498	85.1430436614	0.260798512116
295.15	21836	1	74.56569342	0.2204781
295.15	22038	0.498	85.80782418248	0.260798512116
300.15	25251	1	74.60978904	0.2204781
300.15	25302	0.498	87.6998918194	0.260798512116
305.15	28471	0.498	89.64309641948	0.260798512116
305.15	28640	1	74.34521532	0.2204781
310.15	6561	1	74.56569342	0.2204781
315.15	9049	1	75.22712772	0.2204781
315.15	9748	0.498	89.38741160368	0.260798512116
320.15	11532	1	76.15313574	0.2204781
320.15	12415	0.498	91.22834227744	0.260798512116
325.15	3660	1	77.96105616	0.2204781
325.15	14008	1	76.37361384	0.2204781
325.15	15069	0.498	92.35335546696	0.260798512116
330.15	5594	1	78.75477732	0.2204781
330.15	16475	1	76.63818756	0.2204781
330.15	17709	0.498	91.89312279852	0.260798512116
335.15	7530	1	78.31382112	0.2204781
335.15	18934	1	76.90276128	0.2204781
335.15	20336	0.498	93.0692729512	0.260798512116
340.15	9468	1	77.69648244	0.2204781
340.15	21386	1	77.21143062	0.2204781
340.15	22950	0.498	92.66017724592	0.260798512116
345.15	11404	1	77.25552624	0.2204781
345.15	23827	1	76.32951822	0.2204781
345.15	25550	0.498	92.40449243012	0.260798512116
350.15	7962	0.498	93.88746436176	0.260798512116
350.15	13339	1	79.46030724	0.2204781
350.15	26253	1	77.52009996	0.2204781
350.15	28136	0.498	93.22268384068	0.260798512116
355.15	9814	0.498	93.73405347228	0.260798512116
355.15	15273	1	77.3878131	0.2204781
355.15	28668	1	77.43190872	0.2204781
360.15	11663	0.498	93.73405347228	0.260798512116
360.15	17203	1	77.74057806	0.2204781
365.15	13509	0.498	93.22268384068	0.260798512116
365.15	19126	1	78.62249046	0.2204781
370.15	15351	0.498	94.70565577232	0.260798512116
370.15	21044	1	79.1516379	0.2204781
375.15	5095	1	98.59780632	0.260164158
375.15	17187	0.498	94.19428614072	0.260798512116
380.15	5744	1	93.0417582	0.260164158
380.15	19017	0.498	95.06361451444	0.260798512116
380.15	20994	0.756	88.3836762672	0.242342338152
385.15	4713	0.756	150.34728586528	0.42766294968
385.15	6404	1	89.60229984	0.260164158
385.15	22824	0.756	90.71206343768	0.242342338152
390.15	5229	0.756	127.91874005984	0.38014484416
390.15	7072	1	86.07465024	0.260164158
390.15	22647	0.498	97.6715996356	0.260798512116
395.15	4489	0.498	183.93965648652	0.40909570528
395.15	5756	0.756	116.60943094608	0.327874928088
395.15	7746	1	84.83997288	0.260164158
400.15	4949	0.498	160.00755772764	0.40909570528
400.15	6290	0.756	105.82282099304	0.289860443672
400.15	8425	1	80.43041088	4.6300401
405.15	5419	0.498	144.56419485332	0.35795874212
405.15	6830	0.756	101.35611907416	0.289860443672
405.15	9109	1	78.84296856	11.20028748
410.15	5896	0.498	131.677680137	0.311935475276
410.15	7375	0.756	96.36671799456	0.289860443672
410.15	9795	1	79.98945468	0.2204781
415.15	4254	0	230.8032562	1.3368106
415.15	6379	0.498	124.31395744196	0.311935475276
415.15	7922	0.756	93.23052303024	0.242342338152
415.15	4254	0	222.0849262	0.9880774
420.15	4664	0	202.6721114	0.581222
420.15	4665	0	202.9627224	0.581222
420.15	6865	0.498	115.10930407316	0.311935475276
420.15	8472	0.756	90.85461775424	0.242342338152
420.15	11176	1	79.8130722	0.2204781
425.15	5082	0	186.0491622	3.0223544
425.15	5083	0	187.0953618	3.777943
425.15	7354	0.498	109.1774163466	0.311935475276
425.15	11869	1	81.75327948	0.2204781

System: propane + 2-methylpropane; phases: Fluid (supercritical or subcritical phases)
Property: Mass density, kg/m3 (Fluid (supercritical or subcritical phases)); method: ISOCHOR
Temperature, K	Pressure, kPa	Mole fraction of propane	Mass density, kg/m3	uncertainty
270.15	4427	1	539.9	0.9
270.15	4579	0.498	566.8	0.9
275.15	7953	1	539.6	0.9
275.15	8198	0.498	566.3	0.9
280.15	11458	1	539.3	0.9
280.15	11759	0.498	565.9	0.9
285.15	14939	1	539	0.9
285.15	15256	0.498	565.5	0.9
290.15	18398	1	538.7	0.9
290.15	18687	0.498	565.1	0.9
295.15	21836	1	538.4	0.9
295.15	22038	0.498	564.8	0.9
300.15	25251	1	538.1	0.9
300.15	25302	0.498	564.5	0.9
305.15	28471	0.498	564.2	0.9
305.15	28640	1	537.8	0.9
310.15	6561	1	490.3	0.8
315.15	9049	1	490.1	0.8
315.15	9748	0.498	524.3	0.8
320.15	11532	1	489.8	0.8
320.15	12415	0.498	523.9	0.8
325.15	3660	1	454.8	0.7
325.15	14008	1	489.6	0.8
325.15	15069	0.498	523.6	0.8
330.15	5594	1	454.6	0.7
330.15	16475	1	489.3	0.8
330.15	17709	0.498	523.3	0.8
335.15	7530	1	454.3	0.7
335.15	18934	1	489.1	0.8
335.15	20336	0.498	523	0.8
340.15	9468	1	454.1	0.7
340.15	21386	1	488.9	0.8
340.15	22950	0.498	522.8	0.8
345.15	11404	1	453.9	0.7
345.15	23827	1	488.6	0.8
345.15	25550	0.498	522.5	0.8
350.15	7962	0.498	471.7	0.8
350.15	13339	1	453.7	0.7
350.15	26253	1	488.4	0.8
350.15	28136	0.498	522.3	0.8
355.15	9814	0.498	471.4	0.8
355.15	15273	1	453.5	0.7
355.15	28668	1	488.2	0.8
360.15	11663	0.498	471.2	0.8
360.15	17203	1	453.3	0.7
365.15	13509	0.498	470.9	0.8
365.15	19126	1	453.1	0.7
370.15	15351	0.498	470.7	0.8
370.15	21044	1	452.9	0.7
375.15	5095	1	301.1	0.5
375.15	17187	0.498	470.5	0.8
380.15	5744	1	301	0.5
380.15	19017	0.498	470.2	0.8
380.15	20994	0.756	458.6	0.7
385.15	4713	0.756	279.9	0.5
385.15	6404	1	300.9	0.5
385.15	22824	0.756	458.4	0.7
390.15	5229	0.756	279.8	0.5
390.15	7072	1	300.8	0.5
390.15	22647	0.498	469.8	0.8
395.15	4489	0.498	274.1	0.5
395.15	5756	0.756	279.7	0.5
395.15	7746	1	300.7	0.5
400.15	4949	0.498	274	0.5
400.15	6290	0.756	279.6	0.5
400.15	8425	1	300.6	0.5
405.15	5419	0.498	273.9	0.5
405.15	6830	0.756	279.6	0.5
405.15	9109	1	300.5	0.5
410.15	5896	0.498	273.8	0.5
410.15	7375	0.756	279.5	0.5
410.15	9795	1	300.4	0.5
415.15	4254	0	273.8	0.7
415.15	6379	0.498	273.7	0.5
415.15	7922	0.756	279.4	0.5
415.15	4254	0	273.8	0.7
420.15	4664	0	273.7	0.4
420.15	4665	0	273.8	0.4
420.15	6865	0.498	273.6	0.5
420.15	8472	0.756	279.3	0.5
420.15	11176	1	300.2	0.5
425.15	5082	0	273.7	0.5
425.15	5083	0	273.7	0.5
425.15	7354	0.498	273.6	0.5
425.15	11869	1	300.1	0.5
