Measured thermophysical data. The Phase Transition in a Hybrid Layered Perovskite: [NH3-(CH2)10NH3]ZnCl4 of 1,10-Diaminodecane
Source: Int. J. Thermophys., 2019, 10.1007/s10765-019-2542-0
Compound 1: decane-1,10-diaminium tetrachlorozincate(II), C10H26Cl4N2Zn, InChI=1S/C10H24N2.4ClH.Zn/c11-9-7-5-3-1-2-4-6-8-10-12;;;;;/h1-12H2;4*1H;/q;;;;;+2/p-2, purity 99%

System: decane-1,10-diaminium tetrachlorozincate(II); phases: Crystal 2, Crystal 1, Air at 1 atmosphere
Property: Triple point temperature, K (Crystal 2); method: X-ray diffraction
Triple point temperature, K	uncertainty
358	4

System: decane-1,10-diaminium tetrachlorozincate(II); phases: Crystal 2
Fixed: Pressure, kPa = 101.325
Property: Mass density, kg/m3 (Crystal 2); method: X-ray diffraction
Temperature, K	Mass density, kg/m3	uncertainty
153	1414	3
293	1313	3
