Measured thermophysical data. Volumetric and Isentropic Compressibility Behavior of Ionic Liquid, 1-Propyl-3-Methylimidazolium Bromide in Acetonitrile, Dimethylformamide, and Dimethylsulfoxide at T = (288.15 to 308.15) K
Source: Int. J. Thermophys., 2009, 10.1007/s10765-009-0648-5
Compound 1: acetonitrile, C2H3N, InChI=1S/C2H3N/c1-2-3/h1H3
Compound 2: dimethyl sulfoxide, C2H6OS, InChI=1S/C2H6OS/c1-4(2)3/h1-2H3
Compound 3: dimethylformamide, C3H7NO, InChI=1S/C3H7NO/c1-4(2)3-5/h3H,1-2H3
Compound 4: 1-methyl-3-propylimidazolium bromide, C7H13BrN2, InChI=1S/C7H13N2.BrH/c1-3-4-9-6-5-8(2)7-9;/h5-7H,3-4H2,1-2H3;1H/q+1;/p-1

System: acetonitrile; phases: Liquid
Fixed: Pressure, kPa = 101
Property: Speed of sound, m/s (Liquid); method: PULSEH::UFactor:2
Temperature, K	Speed of sound, m/s	uncertainty
288.15	1319.14	1.41
293.15	1299.01	1.39
298.15	1278.77	1.38
303.15	1258.51	1.36
308.15	1238.4	1.35

System: acetonitrile; phases: Liquid
Fixed: Pressure, kPa = 101
Property: Mass density, kg/m3 (Liquid); method: VIBTUB::UFactor:12
Temperature, K	Mass density, kg/m3	uncertainty
288.15	787.376	1.376
293.15	782.007	1.401
298.15	776.609	1.426
303.15	771.183	1.451
308.15	765.725	1.477

System: dimethyl sulfoxide; phases: Liquid
Fixed: Pressure, kPa = 101
Property: Speed of sound, m/s (Liquid); method: PULSEH::UFactor:2
Temperature, K	Speed of sound, m/s	uncertainty
288.15	1519.12	1.54
293.15	1502.19	1.53
298.15	1485.21	1.51
303.15	1468.32	1.5
308.15	1451.47	1.49

System: dimethyl sulfoxide; phases: Liquid
Fixed: Pressure, kPa = 101
Property: Mass density, kg/m3 (Liquid); method: VIBTUB::UFactor:12
Temperature, K	Mass density, kg/m3	uncertainty
288.15	1105.336	0.877
293.15	1100.306	0.853
298.15	1095.278	0.83
303.15	1090.253	0.806
308.15	1085.231	0.782

System: dimethylformamide; phases: Liquid
Fixed: Pressure, kPa = 101
Property: Speed of sound, m/s (Liquid); method: PULSEH::UFactor:2
Temperature, K	Speed of sound, m/s	uncertainty
288.15	1496.6	1.53
293.15	1477.27	1.52
298.15	1457.81	1.5
303.15	1438.38	1.49
308.15	1419.04	1.47

System: dimethylformamide; phases: Liquid
Fixed: Pressure, kPa = 101
Property: Mass density, kg/m3 (Liquid); method: VIBTUB::UFactor:12
Temperature, K	Mass density, kg/m3	uncertainty
288.15	953.442	0.599
293.15	948.685	0.621
298.15	943.917	0.643
303.15	939.142	0.666
308.15	934.357	0.688

System: 1-methyl-3-propylimidazolium bromide; phases: Liquid
Fixed: Pressure, kPa = 101
Property: Speed of sound, m/s (Liquid); method: PULSEH:UFactor:2
Temperature, K	Speed of sound, m/s	uncertainty
288.15	1699.3	2.59
293.15	1685.03	2.59
298.15	1672.04	2.58
303.15	1659.9	2.57
308.15	1648.33	2.56

System: 1-methyl-3-propylimidazolium bromide; phases: Liquid
Fixed: Pressure, kPa = 101
Property: Mass density, kg/m3 (Liquid); method: VIBTUB:UFactor:12
Temperature, K	Mass density, kg/m3	uncertainty
288.15	1323.47	3.303
293.15	1319.844	3.278
298.15	1316.223	3.254
303.15	1312.6	3.229
308.15	1308.975	3.204

System: acetonitrile + 1-methyl-3-propylimidazolium bromide; phases: Liquid
Fixed: Pressure, kPa = 101
Property: Speed of sound, m/s (Liquid); method: PULSEH:UFactor:2
Temperature, K	Mass fraction of 1-methyl-3-propylimidazolium bromide	Speed of sound, m/s	uncertainty
288.15	0	1319.14	1.41
288.15	0.0042	1320.25	1.41
288.15	0.0061	1320.51	1.41
288.15	0.0082	1321.07	1.41
288.15	0.0107	1321.5	1.41
288.15	0.0124	1321.96	1.41
288.15	0.0161	1322.59	1.41
288.15	0.0206	1323.52	1.41
288.15	0.0251	1324.42	1.42
288.15	0.0298	1325.32	1.42
288.15	0.0347	1326.4	1.42
288.15	0.0407	1327.35	1.42
288.15	0.0493	1329.07	1.43
288.15	0.0605	1330.95	1.43
288.15	1	1699.3	2.59
293.15	0	1299.01	1.39
293.15	0.0042	1300.1	1.39
293.15	0.0061	1300.31	1.39
293.15	0.0082	1301.12	1.39
293.15	0.0107	1301.34	1.4
293.15	0.0124	1301.98	1.4
293.15	0.0161	1302.46	1.4
293.15	0.0206	1303.43	1.4
293.15	0.0251	1304.34	1.4
293.15	0.0298	1305.29	1.4
293.15	0.0347	1306.55	1.41
293.15	0.0407	1307.38	1.41
293.15	0.0493	1309.3	1.41
293.15	0.0605	1311.13	1.42
293.15	1	1685.03	2.59
298.15	0	1278.77	1.38
298.15	0.0042	1279.97	1.38
298.15	0.0061	1280.17	1.38
298.15	0.0082	1281	1.38
298.15	0.0107	1281.2	1.38
298.15	0.0124	1281.87	1.38
298.15	0.0161	1282.36	1.38
298.15	0.0206	1283.37	1.38
298.15	0.0251	1284.33	1.39
298.15	0.0298	1285.31	1.39
298.15	0.0347	1286.59	1.39
298.15	0.0407	1287.47	1.39
298.15	0.0493	1289.44	1.4
298.15	0.0605	1291.33	1.4
298.15	1	1672.04	2.58
303.15	0	1258.51	1.36
303.15	0.0042	1259.67	1.36
303.15	0.0061	1260.03	1.36
303.15	0.0082	1260.87	1.36
303.15	0.0107	1261.14	1.37
303.15	0.0124	1261.79	1.37
303.15	0.0161	1262.34	1.37
303.15	0.0206	1263.39	1.37
303.15	0.0251	1264.39	1.37
303.15	0.0298	1265.38	1.37
303.15	0.0347	1266.67	1.38
303.15	0.0407	1267.64	1.38
303.15	0.0493	1269.61	1.38
303.15	0.0605	1271.62	1.39
303.15	1	1659.9	2.57
308.15	0	1238.4	1.35
308.15	0.0042	1239.62	1.35
308.15	0.0061	1240.08	1.35
308.15	0.0082	1240.79	1.35
308.15	0.0107	1241.22	1.35
308.15	0.0124	1241.73	1.35
308.15	0.0161	1242.45	1.35
308.15	0.0206	1243.54	1.35
308.15	0.0251	1244.56	1.36
308.15	0.0298	1245.61	1.36
308.15	0.0347	1246.79	1.36
308.15	0.0407	1247.96	1.36
308.15	0.0493	1249.83	1.37
308.15	0.0605	1252.07	1.37
308.15	1	1648.33	2.56

System: acetonitrile + 1-methyl-3-propylimidazolium bromide; phases: Liquid
Fixed: Pressure, kPa = 101
Property: Mass density, kg/m3 (Liquid); method: VIBTUB:UFactor:12
Temperature, K	Mass fraction of 1-methyl-3-propylimidazolium bromide	Mass density, kg/m3	uncertainty
288.15	0	787.376	1.376
288.15	0.0042	788.991	1.368
288.15	0.0061	789.726	1.365
288.15	0.0082	790.532	1.362
288.15	0.0107	791.47	1.357
288.15	0.0124	792.123	1.355
288.15	0.0161	793.533	1.348
288.15	0.0206	795.242	1.341
288.15	0.0251	796.939	1.333
288.15	0.0298	798.688	1.326
288.15	0.0347	800.578	1.317
288.15	0.0407	802.812	1.308
288.15	0.0493	806.071	1.294
288.15	0.0605	810.335	1.275
288.15	1	1323.47	3.303
293.15	0	782.007	1.401
293.15	0.0042	783.623	1.394
293.15	0.0061	784.364	1.39
293.15	0.0082	785.181	1.387
293.15	0.0107	786.115	1.382
293.15	0.0124	786.772	1.38
293.15	0.0161	788.186	1.373
293.15	0.0206	789.902	1.366
293.15	0.0251	791.606	1.358
293.15	0.0298	793.361	1.351
293.15	0.0347	795.262	1.342
293.15	0.0407	797.5	1.333
293.15	0.0493	800.772	1.318
293.15	0.0605	805.049	1.3
293.15	1	1319.844	3.278
298.15	0	776.609	1.426
298.15	0.0042	778.237	1.419
298.15	0.0061	778.979	1.415
298.15	0.0082	779.798	1.412
298.15	0.0107	780.735	1.408
298.15	0.0124	781.397	1.405
298.15	0.0161	782.814	1.398
298.15	0.0206	784.538	1.391
298.15	0.0251	786.248	1.383
298.15	0.0298	788.011	1.376
298.15	0.0347	789.919	1.367
298.15	0.0407	792.166	1.358
298.15	0.0493	795.452	1.343
298.15	0.0605	799.743	1.325
298.15	1	1316.223	3.254
303.15	0	771.183	1.451
303.15	0.0042	772.813	1.444
303.15	0.0061	773.562	1.441
303.15	0.0082	774.387	1.437
303.15	0.0107	775.331	1.433
303.15	0.0124	775.996	1.43
303.15	0.0161	777.417	1.424
303.15	0.0206	779.149	1.416
303.15	0.0251	780.864	1.409
303.15	0.0298	782.637	1.401
303.15	0.0347	784.553	1.392
303.15	0.0407	786.808	1.383
303.15	0.0493	790.107	1.368
303.15	0.0605	794.412	1.35
303.15	1	1312.6	3.229
308.15	0	765.725	1.477
308.15	0.0042	767.37	1.47
308.15	0.0061	768.119	1.466
308.15	0.0082	768.949	1.463
308.15	0.0107	769.896	1.458
308.15	0.0124	770.564	1.455
308.15	0.0161	771.996	1.449
308.15	0.0206	773.734	1.441
308.15	0.0251	775.46	1.434
308.15	0.0298	777.238	1.426
308.15	0.0347	779.16	1.418
308.15	0.0407	781.426	1.408
308.15	0.0493	784.738	1.393
308.15	0.0605	789.059	1.375
308.15	1	1308.975	3.204

System: dimethylformamide + 1-methyl-3-propylimidazolium bromide; phases: Liquid
Fixed: Pressure, kPa = 101
Property: Speed of sound, m/s (Liquid); method: PULSEH:UFactor:2
Temperature, K	Mass fraction of 1-methyl-3-propylimidazolium bromide	Speed of sound, m/s	uncertainty
288.15	0	1496.6	1.53
288.15	0.006	1498.44	1.53
288.15	0.0073	1498.74	1.54
288.15	0.0101	1499.53	1.54
288.15	0.012	1499.8	1.54
288.15	0.0162	1500.84	1.54
288.15	0.0204	1501.65	1.54
288.15	0.0249	1502.7	1.54
288.15	0.0303	1503.73	1.55
288.15	0.0348	1504.8	1.55
288.15	0.0405	1505.78	1.55
288.15	0.0503	1507.84	1.55
288.15	0.0586	1509.26	1.56
288.15	1	1699.3	2.59
293.15	0	1477.27	1.52
293.15	0.006	1479.23	1.52
293.15	0.0073	1479.51	1.52
293.15	0.0101	1480.17	1.52
293.15	0.012	1480.29	1.52
293.15	0.0162	1481.59	1.53
293.15	0.0204	1482.21	1.53
293.15	0.0249	1483.53	1.53
293.15	0.0303	1484.4	1.53
293.15	0.0348	1485.44	1.53
293.15	0.0405	1486.49	1.54
293.15	0.0503	1488.8	1.54
293.15	0.0586	1490.09	1.54
293.15	1	1685.03	2.59
298.15	0	1457.81	1.5
298.15	0.006	1459.82	1.51
298.15	0.0073	1460.11	1.51
298.15	0.0101	1460.8	1.51
298.15	0.012	1460.9	1.51
298.15	0.0162	1462.19	1.51
298.15	0.0204	1462.88	1.51
298.15	0.0249	1464.24	1.51
298.15	0.0303	1465.1	1.52
298.15	0.0348	1466.2	1.52
298.15	0.0405	1467.29	1.52
298.15	0.0503	1469.65	1.53
298.15	0.0586	1470.97	1.53
298.15	1	1672.04	2.58
303.15	0	1438.38	1.49
303.15	0.006	1440.48	1.49
303.15	0.0073	1440.79	1.49
303.15	0.0101	1441.44	1.49
303.15	0.012	1441.61	1.49
303.15	0.0162	1442.92	1.5
303.15	0.0204	1443.63	1.5
303.15	0.0249	1444.99	1.5
303.15	0.0303	1445.92	1.5
303.15	0.0348	1447.05	1.5
303.15	0.0405	1448.16	1.51
303.15	0.0503	1450.55	1.51
303.15	0.0586	1451.96	1.51
303.15	1	1659.9	2.57
308.15	0	1419.04	1.47
308.15	0.006	1421.19	1.48
308.15	0.0073	1421.49	1.48
308.15	0.0101	1422.18	1.48
308.15	0.012	1422.45	1.48
308.15	0.0162	1423.69	1.48
308.15	0.0204	1424.51	1.48
308.15	0.0249	1425.82	1.49
308.15	0.0303	1426.91	1.49
308.15	0.0348	1428.11	1.49
308.15	0.0405	1429.18	1.49
308.15	0.0503	1431.56	1.5
308.15	0.0586	1433.1	1.5
308.15	1	1648.33	2.56

System: dimethylformamide + 1-methyl-3-propylimidazolium bromide; phases: Liquid
Fixed: Pressure, kPa = 101
Property: Mass density, kg/m3 (Liquid); method: VIBTUB:UFactor:12
Temperature, K	Mass fraction of 1-methyl-3-propylimidazolium bromide	Mass density, kg/m3	uncertainty
288.15	0	953.442	0.599
288.15	0.006	955.471	0.59
288.15	0.0073	955.896	0.588
288.15	0.0101	956.834	0.584
288.15	0.012	957.413	0.582
288.15	0.0162	958.776	0.576
288.15	0.0204	960.154	0.57
288.15	0.0249	961.605	0.564
288.15	0.0303	963.324	0.557
288.15	0.0348	964.79	0.551
288.15	0.0405	966.57	0.544
288.15	0.0503	969.758	0.531
288.15	0.0586	972.333	0.521
288.15	1	1323.47	3.303
293.15	0	948.685	0.621
293.15	0.006	950.721	0.612
293.15	0.0073	951.148	0.611
293.15	0.0101	952.089	0.607
293.15	0.012	952.669	0.604
293.15	0.0162	954.039	0.598
293.15	0.0204	955.416	0.593
293.15	0.0249	956.878	0.586
293.15	0.0303	958.602	0.579
293.15	0.0348	960.068	0.573
293.15	0.0405	961.858	0.566
293.15	0.0503	965.06	0.553
293.15	0.0586	967.639	0.543
293.15	1	1319.844	3.278
298.15	0	943.917	0.643
298.15	0.006	945.962	0.635
298.15	0.0073	946.392	0.633
298.15	0.0101	947.339	0.629
298.15	0.012	947.92	0.626
298.15	0.0162	949.295	0.62
298.15	0.0204	950.675	0.615
298.15	0.0249	952.144	0.609
298.15	0.0303	953.872	0.601
298.15	0.0348	955.349	0.595
298.15	0.0405	957.139	0.588
298.15	0.0503	960.356	0.575
298.15	0.0586	962.94	0.564
298.15	1	1316.223	3.254
303.15	0	939.142	0.666
303.15	0.006	941.197	0.657
303.15	0.0073	941.628	0.655
303.15	0.0101	942.58	0.651
303.15	0.012	943.162	0.649
303.15	0.0162	944.542	0.643
303.15	0.0204	945.932	0.637
303.15	0.0249	947.403	0.631
303.15	0.0303	949.136	0.623
303.15	0.0348	950.617	0.617
303.15	0.0405	952.415	0.61
303.15	0.0503	955.641	0.597
303.15	0.0586	958.234	0.586
303.15	1	1312.6	3.229
308.15	0	934.357	0.688
308.15	0.006	936.424	0.679
308.15	0.0073	936.859	0.677
308.15	0.0101	937.812	0.673
308.15	0.012	938.398	0.671
308.15	0.0162	939.782	0.665
308.15	0.0204	941.175	0.659
308.15	0.0249	942.652	0.653
308.15	0.0303	944.395	0.646
308.15	0.0348	945.882	0.639
308.15	0.0405	947.684	0.632
308.15	0.0503	950.923	0.619
308.15	0.0586	953.523	0.608
308.15	1	1308.975	3.204

System: dimethyl sulfoxide + 1-methyl-3-propylimidazolium bromide; phases: Liquid
Fixed: Pressure, kPa = 101
Property: Speed of sound, m/s (Liquid); method: PULSEH:UFactor:2
Temperature, K	Mass fraction of 1-methyl-3-propylimidazolium bromide	Speed of sound, m/s	uncertainty
288.15	0	1519.12	1.54
288.15	0.0077	1520.94	1.54
288.15	0.0102	1521.5	1.54
288.15	0.012	1521.87	1.54
288.15	0.0159	1523	1.54
288.15	0.0203	1523.78	1.55
288.15	0.0252	1524.81	1.55
288.15	0.0297	1525.76	1.55
288.15	0.0356	1527.05	1.55
288.15	0.0423	1528.5	1.56
288.15	0.0502	1530.18	1.56
288.15	0.0599	1532.12	1.56
288.15	1	1699.3	2.59
293.15	0	1502.19	1.53
293.15	0.0077	1504.17	1.53
293.15	0.0102	1504.7	1.53
293.15	0.012	1505.18	1.53
293.15	0.0159	1506	1.53
293.15	0.0203	1507.04	1.53
293.15	0.0252	1507.8	1.54
293.15	0.0297	1509.09	1.54
293.15	0.0356	1510.38	1.54
293.15	0.0423	1511.62	1.54
293.15	0.0502	1513.54	1.55
293.15	0.0599	1515.32	1.55
293.15	1	1685.03	2.59
298.15	0	1485.21	1.51
298.15	0.0077	1487.28	1.52
298.15	0.0102	1487.78	1.52
298.15	0.012	1488.28	1.52
298.15	0.0159	1489.16	1.52
298.15	0.0203	1490.21	1.52
298.15	0.0252	1490.97	1.52
298.15	0.0297	1492.31	1.52
298.15	0.0356	1493.6	1.53
298.15	0.0423	1494.86	1.53
298.15	0.0502	1496.88	1.53
298.15	0.0599	1498.68	1.54
298.15	1	1672.04	2.58
303.15	0	1468.32	1.5
303.15	0.0077	1470.41	1.5
303.15	0.0102	1470.93	1.5
303.15	0.012	1471.43	1.5
303.15	0.0159	1472.33	1.51
303.15	0.0203	1473.38	1.51
303.15	0.0252	1474.22	1.51
303.15	0.0297	1475.55	1.51
303.15	0.0356	1476.86	1.51
303.15	0.0423	1478.2	1.52
303.15	0.0502	1480.18	1.52
303.15	0.0599	1482.06	1.53
303.15	1	1659.9	2.57
308.15	0	1451.47	1.49
308.15	0.0077	1453.62	1.49
308.15	0.0102	1454.16	1.49
308.15	0.012	1454.71	1.49
308.15	0.0159	1455.72	1.49
308.15	0.0203	1456.68	1.5
308.15	0.0252	1457.64	1.5
308.15	0.0297	1458.86	1.5
308.15	0.0356	1460.27	1.5
308.15	0.0423	1461.69	1.5
308.15	0.0502	1463.63	1.51
308.15	0.0599	1465.69	1.51
308.15	1	1648.33	2.56

System: dimethyl sulfoxide + 1-methyl-3-propylimidazolium bromide; phases: Liquid
Fixed: Pressure, kPa = 101
Property: Mass density, kg/m3 (Liquid); method: VIBTUB:UFactor:12
Temperature, K	Mass fraction of 1-methyl-3-propylimidazolium bromide	Mass density, kg/m3	uncertainty
288.15	0	1105.336	0.877
288.15	0.0077	1107.073	0.886
288.15	0.0102	1107.623	0.889
288.15	0.012	1108.045	0.892
288.15	0.0159	1108.91	0.897
288.15	0.0203	1109.879	0.902
288.15	0.0252	1110.967	0.908
288.15	0.0297	1111.952	0.914
288.15	0.0356	1113.266	0.921
288.15	0.0423	1114.736	0.93
288.15	0.0502	1116.492	0.94
288.15	0.0599	1118.621	0.953
288.15	1	1323.47	3.303
293.15	0	1100.306	0.853
293.15	0.0077	1102.058	0.863
293.15	0.0102	1102.611	0.866
293.15	0.012	1103.04	0.868
293.15	0.0159	1103.907	0.873
293.15	0.0203	1104.885	0.879
293.15	0.0252	1105.976	0.885
293.15	0.0297	1106.976	0.89
293.15	0.0356	1108.298	0.898
293.15	0.0423	1109.775	0.907
293.15	0.0502	1111.547	0.917
293.15	0.0599	1113.688	0.93
293.15	1	1319.844	3.278
298.15	0	1095.278	0.83
298.15	0.0077	1097.047	0.839
298.15	0.0102	1097.603	0.842
298.15	0.012	1098.036	0.845
298.15	0.0159	1098.912	0.85
298.15	0.0203	1099.893	0.855
298.15	0.0252	1100.993	0.861
298.15	0.0297	1102.003	0.867
298.15	0.0356	1103.331	0.875
298.15	0.0423	1104.82	0.883
298.15	0.0502	1106.603	0.894
298.15	0.0599	1108.76	0.906
298.15	1	1316.223	3.254
303.15	0	1090.253	0.806
303.15	0.0077	1092.039	0.816
303.15	0.0102	1092.6	0.819
303.15	0.012	1093.034	0.821
303.15	0.0159	1093.917	0.826
303.15	0.0203	1094.907	0.832
303.15	0.0252	1096.017	0.838
303.15	0.0297	1097.033	0.844
303.15	0.0356	1098.374	0.851
303.15	0.0423	1099.87	0.86
303.15	0.0502	1101.667	0.87
303.15	0.0599	1103.839	0.883
303.15	1	1312.6	3.229
308.15	0	1085.231	0.782
308.15	0.0077	1087.033	0.792
308.15	0.0102	1087.6	0.795
308.15	0.012	1088.033	0.798
308.15	0.0159	1088.929	0.803
308.15	0.0203	1089.926	0.808
308.15	0.0252	1091.044	0.814
308.15	0.0297	1092.065	0.82
308.15	0.0356	1093.417	0.828
308.15	0.0423	1094.928	0.837
308.15	0.0502	1096.735	0.847
308.15	0.0599	1098.928	0.86
308.15	1	1308.975	3.204
