Measured thermophysical data. Isochoric Heat Capacity of CO2+n-Decane Mixtures in the Critical Region
Source: Int. J. Thermophys., 2006, 10.1007/s10765-006-0056-z
Compound 1: decane, C10H22, InChI=1S/C10H22/c1-3-5-7-9-10-8-6-4-2/h3-10H2,1-2H3
Compound 2: carbon dioxide, CO2, InChI=1S/CO2/c2-1-3

System: decane + carbon dioxide; phases: Liquid, Gas
Property: Critical pressure, kPa (Liquid); method: Derived from isochoric Cv measurments
Mole fraction of decane	Critical pressure, kPa	uncertainty
0.095	16500	30
0.178	18230	40

System: decane + carbon dioxide; phases: Liquid, Gas
Property: Critical temperature, K (Liquid); method: Derived from isochoric Cv measurments
Mole fraction of decane	Critical temperature, K	uncertainty
0.095	377.5	0.1
0.178	460.15	0.18

System: decane + carbon dioxide; phases: Liquid, Gas
Property: Critical density, kg/m3 (Liquid); method: Derived from isochoric Cv measurments
Mole fraction of decane	Critical density, kg/m3	uncertainty
0.095	551	12.8
0.178	420	9.8

System: decane + carbon dioxide; phases: Liquid, Gas
Property: Molar heat capacity at constant volume, J/K/mol (Liquid); method: iso
Temperature, K	Mole fraction of decane	Molar heat capacity at constant volume, J/K/mol	uncertainty
339.759	0.095	405.3713686029	8.1084942792
352.093	0.095	393.1019364699	7.8417674937
368.528	0.095	393.1019364699	7.8417674937
447.317	0.178	568.2779998896	11.3778603874
451.39	0.178	574.18218690144	11.50086428348
457.767	0.178	595.83087261152	11.93137791976
460.15	0.178	606.1016979342	12.11588376388

System: decane + carbon dioxide; phases: Liquid, Gas
Property: Mass density, kg/m3 (Liquid); method: Derived from isochoric Cv measurments
Temperature, K	Mole fraction of decane	Mass density, kg/m3	uncertainty
339.759	0.095	658.8	2.3
352.093	0.095	622.7	2.1
368.528	0.095	574.1	1.8
447.317	0.178	457.5	1.2
451.39	0.178	445.04	1.14
457.767	0.178	426.08	1.05
460.15	0.178	420	1.01

System: decane + carbon dioxide; phases: Gas, Liquid
Property: Mass density, kg/m3 (Gas); method: Derived from isochoric Cv measurments
Temperature, K	Mole fraction of decane	Mass density, kg/m3	uncertainty
383.363	0.095	534.8	1.5
393.006	0.095	509.4	1.4
397.344	0.095	498	1.4
404.551	0.095	477.6	1.3
433.991	0.095	398.3	0.9
442.459	0.095	374.7	0.8
450.729	0.095	349.4	0.7
460.096	0.095	320.2	0.6
463.061	0.095	87.03	0.16
464.13	0.178	408.8	1
471.107	0.095	281.4	0.5
475.488	0.095	110.8	0.2
477.058	0.178	375	0.9
481.001	0.095	241	0.4
481.831	0.095	131.5	0.2
485.999	0.095	201.8	0.3
487.052	0.095	155	0.2
488.104	0.095	176.7	0.3
488.424	0.178	339.4	0.8
497.073	0.178	310.8	0.7
504.829	0.178	284.3	2.8
515.001	0.178	83.31	2.8
519.436	0.178	117.8	4.1
522.198	0.178	164.2	5.8

System: decane + carbon dioxide; phases: Fluid (supercritical or subcritical phases)
Property: Molar heat capacity at constant volume, J/K/mol (Fluid (supercritical or subcritical phases)); method: Isochoric Heat Capacity Apparatus
Temperature, K	Mass density, kg/m3	Mole fraction of decane	Molar heat capacity at constant volume, J/K/mol	uncertainty
339.806	658.8	0.095	339.0630897276	6.7748603517
340.207	658.8	0.095	339.7032340128	6.7748603517
340.442	658.8	0.095	339.0630897276	6.7748603517
341.357	658.8	0.095	337.0359661578	6.7215149946
342.319	658.8	0.095	337.676110443	6.7748603517
348.734	658.8	0.095	325.40667831	6.5081335662
352.497	622.7	0.095	340.8234865119	6.8282057088
352.9	622.7	0.095	339.0630897276	6.7748603517
354.629	622.7	0.095	337.0359661578	6.7215149946
362.182	658.8	0.095	313.137246177	6.2414067807
364.004	622.7	0.095	323.6462815257	6.4547882091
368.83	574.1	0.095	364.0820622075	7.3083139227
369.767	574.1	0.095	359.3876707827	7.2016232085
371.228	658.8	0.095	303.7484633274	6.0813707094
380.809	622.7	0.095	305.7755868972	6.1347160665
383.809	534.8	0.095	350.9057590038	7.0415871372
384.114	534.8	0.095	347.5450015065	6.934896423
385.016	574.1	0.095	318.9518901009	6.401442852
385.788	534.8	0.095	348.6652540056	6.9882417801
387.653	534.8	0.095	339.4898525844	6.7748603517
393.223	509.4	0.095	349.3053982908	6.9882417801
393.658	622.7	0.095	307.1092208247	6.1347160665
394.419	509.4	0.095	339.0630897276	6.7748603517
395.937	509.4	0.095	340.8234865119	6.8282057088
397.668	498	0.095	351.1191404322	7.0415871372
397.776	574.1	0.095	312.2303751063	6.2414067807
398.317	498	0.095	353.0929186449	7.0415871372
399.396	498	0.095	343.9708625808	6.8815510659
401.334	534.8	0.095	323.6462815257	6.4547882091
403.373	574.1	0.095	314.2574986761	6.2947521378
404.765	509.4	0.095	325.1932968816	6.5081335662
404.979	477.6	0.095	347.3316200781	6.934896423
405.407	477.6	0.095	344.1842440092	6.8815510659
406.901	534.8	0.095	319.5920343861	6.401442852
407.328	477.6	0.095	339.276471156	6.7748603517
410.305	509.4	0.095	327.4338018798	6.5614789233
410.942	498	0.095	327.007039023	6.5614789233
411.472	574.1	0.095	311.3235040356	6.2414067807
416.012	477.6	0.095	330.3144511632	6.6148242804
416.643	509.4	0.095	321.6191579559	6.4547882091
422.509	498	0.095	321.6191579559	6.4547882091
423.546	509.4	0.095	319.5920343861	6.401442852
428.945	477.6	0.095	321.4057765275	6.4547882091
432.244	509.4	0.095	320.0721426	6.401442852
434.607	398.3	0.095	344.611006866	6.8815510659
434.911	398.3	0.095	342.6372286533	6.8282057088
436.961	398.3	0.095	343.0639915101	6.8815510659
437.676	498	0.095	321.1923950991	6.401442852
438.186	509.4	0.095	318.0450190302	6.3480974949
440.428	534.8	0.095	316.2846222459	6.3480974949
442.03	534.8	0.095	316.4980036743	6.3480974949
442.053	498	0.095	321.1923950991	6.401442852
442.662	477.6	0.095	322.3126475982	6.4547882091
442.878	498	0.095	321.1923950991	6.401442852
443.068	374.7	0.095	344.1842440092	6.8815510659
443.675	374.7	0.095	343.4907543669	6.8815510659
444.485	374.7	0.095	342.8506100817	6.8815510659
447.951	457.5	0.178	478.11614406296	9.59430389424
448.271	457.5	0.178	482.29827652968	9.65580584228
448.552	457.5	0.178	479.96120250416	9.59430389424
449.123	398.3	0.095	331.0079408055	6.6148242804
452.331	509.4	0.095	318.9518901009	6.401442852
452.332	457.5	0.178	465.2622369226	9.28679415404
453.232	457.5	0.178	462.98666484512	9.28679415404
457.12	374.7	0.095	340.8234865119	6.8282057088
459.005	477.6	0.095	323.6462815257	6.4547882091
460.393	320.2	0.095	354.213171144	7.0949324943
460.691	320.2	0.095	351.3325218606	7.0415871372
460.888	320.2	0.095	349.9988879331	6.9882417801
463.258	87	0.095	712.693970856	14.403246417
463.258	398.3	0.095	334.1553168744	6.6681696375
463.455	457.5	0.178	459.1120421186	9.16379025796
463.652	87	0.095	685.487838735	13.869792846
463.85	87	0.095	688.15510659	13.869792846
464.047	87	0.095	691.355828016	13.869792846
465.425	87	0.095	690.822374445	13.869792846
466.3	408.8	0.178	493.61463496904	9.90181363444
467.05	408.8	0.178	490.53953756704	9.8403116864
467.193	87	0.095	706.825981575	14.403246417
467.97	408.8	0.178	487.7104479572	9.77880973836
468.762	374.7	0.095	336.3424765155	6.7215149946
468.762	408.8	0.178	486.41890704836	9.71730779032
470.718	477.6	0.095	326.3135493807	6.5081335662
471.204	281.4	0.095	360.9346861386	7.2016232085
471.693	281.4	0.095	359.8144336395	7.2016232085
471.888	281.4	0.095	358.480799712	7.1482778514
473.252	281.4	0.095	350.9057590038	7.0415871372
474.614	457.5	0.178	456.77496809308	9.16379025796
475.973	110.8	0.095	594.800731665	11.735978562
476.118	110.8	0.095	599.068360233	11.735978562
476.329	110.8	0.095	591.066556668	11.735978562
476.361	320.2	0.095	342.6372286533	6.8282057088
476.555	408.8	0.178	472.21195705112	9.47129999816
476.749	110.8	0.095	590.533103097	11.735978562
476.942	398.3	0.095	336.8225847294	6.7215149946
477.329	110.8	0.095	594.800731665	11.735978562
477.523	374.7	0.095	337.7294558001	6.7748603517
477.523	375	0.178	493.12261938472	9.8403116864
477.814	375	0.178	495.64419925436	9.90181363444
478.201	375	0.178	491.03155315136	9.8403116864
478.491	375	0.178	492.56910185236	9.8403116864
479.844	408.8	0.178	471.47393367464	9.40979805012
481.772	241	0.095	380.352396123	7.6283860653
481.965	241	0.095	378.3786179103	7.5750407082
482.023	131.5	0.095	517.9300720839	10.3489992774
482.408	131.5	0.095	521.0774481528	10.4023446345
483.311	241	0.095	370.3234689882	7.4150046369
483.372	131.5	0.095	528.4391074326	10.5623807058
485.042	281.4	0.095	352.4527743597	7.0415871372
485.616	375	0.178	481.74475899732	9.65580584228
486.191	374.7	0.095	337.4627290146	6.7748603517
486.478	201.8	0.095	412.0928835975	8.2685303505
486.765	375	0.178	484.88135834736	9.71730779032
486.958	201.8	0.095	409.4256157425	8.2151849934
486.964	131.5	0.095	529.9861227885	10.6157260629
487.148	155	0.095	472.8532453344	9.4421282067
487.152	201.8	0.095	398.2230907515	7.9484582079
487.339	155	0.095	461.8641017718	9.2287467783
487.53	155	0.095	453.3821899929	9.068710707
487.721	155	0.095	442.233010359	8.8553292786
487.961	155	0.095	446.7140203554	8.9620199928
488.191	155	0.095	447.1407832122	8.9620199928
488.486	176.7	0.095	436.898474649	8.7486385644
488.581	176.7	0.095	427.9364546562	8.535257136
488.677	176.7	0.095	434.1778614369	8.6952932073
488.82	339.4	0.178	500.3183473054	10.02481753052
488.868	176.7	0.095	431.7239750103	8.6419478502
489.059	176.7	0.095	425.9093310864	8.535257136
489.44	339.4	0.178	498.7807986044	9.96331558248
490.013	408.8	0.178	466.06176224712	9.34829610208
490.584	398.3	0.095	337.2493475862	6.7215149946
491.536	281.4	0.095	350.2122693615	6.9882417801
493.437	339.4	0.178	492.81510964452	9.8403116864
493.437	375	0.178	478.91566938748	9.59430389424
493.627	320.2	0.095	344.9844243657	6.8815510659
494.291	339.4	0.178	493.8606427612	9.90181363444
494.386	375	0.178	481.74475899732	9.65580584228
494.765	87	0.095	750.569174397	14.936699988
494.955	374.7	0.095	342.8506100817	6.8815510659
495.334	176.7	0.095	423.9355528737	8.4819117789
495.523	241	0.095	368.5097268468	7.3616592798
495.524	408.8	0.178	468.89085185696	9.34829610208
496.555	131.5	0.095	548.390270988	11.202524991
497.415	310.8	0.178	516.0013440556	10.33232727072
497.509	310.8	0.178	512.9262466536	10.27082532268
497.604	310.8	0.178	514.21778756244	10.27082532268
499.867	155	0.095	463.6778439132	9.2820921354
499.869	110.8	0.095	615.071967363	12.269432133
500.057	375	0.178	479.46918691984	9.59430389424
500.904	310.8	0.178	505.17700120056	10.08631947856
500.904	398.3	0.095	339.7032340128	6.7748603517
501.751	310.8	0.178	507.26806743392	10.1478214266
502.878	408.8	0.178	473.2574901678	9.47129999816
503.066	339.4	0.178	489.49400445036	9.77880973836
503.817	339.4	0.178	492.3230940602	9.8403116864
504.885	284.3	0.178	533.77540703916	10.70133895896
505.503	201.8	0.095	397.3162196808	7.9484582079
505.96	284.3	0.178	524.24260509296	10.51683311484
506.252	374.7	0.095	343.9708625808	6.8815510659
506.316	284.3	0.178	521.65952327528	10.4553311668
507.562	320.2	0.095	346.4247490074	6.934896423
508.72	284.3	0.178	513.41826223792	10.27082532268
509.654	284.3	0.178	513.41826223792	10.27082532268
512.218	339.4	0.178	488.69447912584	9.77880973836
512.403	241	0.095	370.1100875598	7.4150046369
512.961	339.4	0.178	489.49400445036	9.77880973836
513.518	155	0.095	469.9192506939	9.3887828496
513.704	176.7	0.095	436.2049850067	8.7486385644
514.104	110.8	0.095	628.941760209	12.802885704
515.186	281.4	0.095	353.3596454304	7.0415871372
515.371	398.3	0.095	347.3316200781	6.934896423
515.86	131.5	0.095	553.724806698	11.202524991
516.112	87	0.095	740.967010119	14.936699988
516.757	83.3	0.178	975.91291149872	19.49611752868
517.48	83.3	0.178	984.15417253608	19.6806233728
517.591	374.7	0.095	348.1851457917	6.9882417801
517.683	310.8	0.178	496.68973237104	9.96331558248
518.514	310.8	0.178	499.76482977304	10.02481753052
519.251	155	0.095	471.7329928353	9.4421282067
520.725	117.8	0.178	788.70098166496	15.80600064628
521.278	110.8	0.095	622.540317357	12.269432133
522.565	320.2	0.095	352.8795372165	7.0415871372
523.116	281.4	0.095	355.3334236431	7.0949324943
523.668	164.2	0.178	675.66040116744	13.5304285688
524.035	164.2	0.178	667.66514792224	13.34592272468
524.035	201.8	0.095	397.1028382524	7.9484582079
524.218	320.2	0.095	351.3325218606	7.0415871372
524.403	164.2	0.178	659.97740441724	13.2229188286
524.768	83.3	0.178	982.86263162724	19.6806233728
526.601	117.8	0.178	779.16817971876	15.55999285412
528.428	117.8	0.178	775.5395647844	15.49849090608
529.614	164.2	0.178	637.52919338264	12.73090324428
529.706	117.8	0.178	768.83585244804	15.37548701
530.071	164.2	0.178	636.2376524738	12.73090324428
530.253	241	0.095	375.4446232698	7.5216953511
530.618	164.2	0.178	631.87101416296	12.66940129624
530.668	339.4	0.178	492.81510964452	9.8403116864
531.397	339.4	0.178	493.8606427612	9.90181363444
532.44	374.7	0.095	354.6932793579	7.0949324943
532.985	87	0.095	727.630670844	14.403246417
533.167	117.8	0.178	758.56502712536	15.19098116588
533.712	155	0.095	467.6787456957	9.3354374925
534.076	117.8	0.178	754.936412191	15.12947921784
535.312	131.5	0.095	565.994238831	11.202524991
535.395	83.3	0.178	958.13884851516	19.18860778848
535.891	164.2	0.178	631.13299078648	12.6078993482
536.163	83.3	0.178	972.28429656436	19.43461558064
536.977	83.3	0.178	973.82184526536	19.49611752868
536.977	110.8	0.095	693.4896423	13.869792846
537.702	320.2	0.095	358.2674182836	7.1482778514
538.245	281.4	0.095	361.6281757809	7.2549685656
543.481	201.8	0.095	402.0106111056	8.0551489221
543.481	310.8	0.178	509.05162392708	10.20932337464
543.841	176.7	0.095	450.9283035663	9.0153653499
544.112	310.8	0.178	514.4637953546	10.27082532268
544.381	284.3	0.178	517.29288496444	10.33232727072
546.368	117.8	0.178	758.81103491752	15.19098116588
546.627	83.3	0.178	971.79228098004	19.43461558064
547.615	83.3	0.178	992.88744915776	19.86512921692
550.124	87	0.095	712.693970856	14.403246417
550.124	320.2	0.095	360.7213047102	7.2016232085
550.482	281.4	0.095	369.4165979175	7.4150046369
550.84	155	0.095	462.1308285573	9.2287467783
554.056	164.2	0.178	623.38374533344	12.48489545212
556.37	131.5	0.095	553.724806698	11.202524991
556.908	83.3	0.178	997.74610305292	19.92663116496
559.754	241	0.095	388.8343079019	7.7884221366
560.287	281.4	0.095	373.4174997	7.468349994
561.174	176.7	0.095	448.6877985681	8.9620199928
561.352	320.2	0.095	369.8433607743	7.4150046369
568.429	241	0.095	393.5286993267	7.8951128508
339.759	658.8	0.095	341.2502493687	6.8282057088
352.093	622.7	0.095	341.7303575826	6.8282057088
368.528	574.1	0.095	365.415696135	7.3083139227
447.317	457.5	0.178	485.865389516	9.71730779032
451.39	201.8	0.178	488.20246354152	9.77880973836

System: decane + carbon dioxide; phases: Gas
Property: Molar heat capacity at constant volume, J/K/mol (Gas); method: Derived from isochoric Cv measurments
Mass density, kg/m3	Temperature, K	Mole fraction of decane	Molar heat capacity at constant volume, J/K/mol	uncertainty
83.31	515.001	0.178	990.30436734008	19.80362726888
87.03	463.061	0.095	735.099020838	14.936699988
110.8	475.488	0.095	618.80614236	12.269432133
117.8	519.436	0.178	794.6051686768	15.86750259432
131.5	481.831	0.095	551.057538843	11.202524991
155	487.052	0.095	488.2167081792	9.7622003493
164.2	522.198	0.178	688.76031609996	13.77643636096
176.7	488.104	0.095	448.9545253536	8.9620199928
201.8	485.999	0.095	423.4554446598	8.4819117789
241	481.001	0.095	397.5829464663	7.9484582079
281.4	471.107	0.095	370.1100875598	7.4150046369
284.3	504.829	0.178	536.85050444116	10.762840907
310.8	497.073	0.178	518.58442587328	10.39382921876
320.2	460.096	0.095	359.6010522111	7.2016232085
339.4	488.424	0.178	505.97652652508	10.1478214266
349.4	450.729	0.095	353.0929186449	7.0415871372
374.7	442.459	0.095	348.4518725772	6.9882417801
375	477.058	0.178	498.22728107204	9.96331558248
398.3	433.991	0.095	347.3316200781	6.934896423
408.8	464.13	0.178	499.51882198088	9.96331558248
477.6	404.551	0.095	350.6390322183	6.9882417801
498	397.344	0.095	353.9997897156	7.7350767795
509.4	393.006	0.095	357.3605472129	7.7884221366
534.8	383.363	0.095	369.4165979175	7.4150046369
