Measured thermophysical data. Thermophysical Properties of Solid Phase Hafnium at High Temperatures
Source: Int. J. Thermophys., 2006, 10.1007/s10765-006-0045-2
Compound 1: hafnium, Hf, InChI=1S/Hf, purity 99.29%

System: hafnium; phases: Crystal 2, Crystal 1, Air at 1 atmosphere
Property: Triple point temperature, K (Crystal 2); method: Laser pulse heating
Triple point temperature, K	uncertainty
2004	18

System: hafnium; phases: Crystal
Property: Mass density, kg/m3 (Crystal); method: mass over volume
Temperature, K	Pressure, kPa	Mass density, kg/m3	uncertainty
298.1	101.325	13189	34

System: hafnium; phases: Crystal 1
Fixed: Pressure, kPa = 101.325
Property: Molar heat capacity at constant pressure, J/K/mol (Crystal 1); method: Resistive pulse heating
Temperature, K	Molar heat capacity at constant pressure, J/K/mol	uncertainty
2121	34.1276704	2.052658
2171	34.181218	2.052658
2222	34.2347656	2.052658
2272	34.2883132	2.052658
2321	34.4132576	2.0705072
2336	34.5025036	2.0705072

System: hafnium; phases: Crystal 2
Fixed: Pressure, kPa = 101.325
Property: Molar heat capacity at constant pressure, J/K/mol (Crystal 2); method: Resistive pulse heating
Temperature, K	Molar heat capacity at constant pressure, J/K/mol	uncertainty
294	25.613602	1.5350312
321	25.8634908	1.5528804
372	26.32757	1.5885788
421	26.7738	1.606428
471	27.22003	1.6421264
522	27.66626	1.6599756
571	28.0946408	1.6778248
622	28.5230216	1.7135232
671	28.9335532	1.7313724
721	29.361934	1.7670708
771	29.7724656	1.78492
821	30.165148	1.8027692
871	30.5578304	1.8384676
921	30.9505128	1.8563168
971	31.3431952	1.874166
1021	31.7180284	1.9098644
1071	32.0750124	1.9277136
1121	32.4498456	1.9455628
1171	32.842528	1.963412
1221	33.199512	1.9991104
1271	33.5386468	2.0169596
1321	33.8777816	2.0348088
1371	34.1990672	2.052658
1421	34.5203528	2.0705072
1471	34.8416384	2.0883564
1521	35.1450748	2.1062056
1571	35.4485112	2.1240548
1621	35.7340984	2.141904
1671	36.0196856	2.1597532
1721	36.3052728	2.1776024
1771	36.5730108	2.1954516
1821	36.8407488	2.2133008
1871	37.0906376	2.23115
1921	37.3405264	2.2489992
1971	37.5904152	2.2489992
1983	39.178994	2.3560944

System: hafnium; phases: Crystal 2, Crystal 1, Air at 1 atmosphere
Property: Triple point temperature, K (Crystal 2); method: Laser pulse heating
Triple point temperature, K	uncertainty
2008	8

System: hafnium; phases: Crystal
Property: Mass density, kg/m3 (Crystal); method: mass over volume
Temperature, K	Pressure, kPa	Mass density, kg/m3	uncertainty
298.1	101.325	13222	194

System: hafnium; phases: Crystal 2
Fixed: Pressure, kPa = 101.325
Property: Molar heat capacity at constant pressure, J/K/mol (Crystal 2); method: Resistive pulse heating
Temperature, K	Molar heat capacity at constant pressure, J/K/mol	uncertainty
294	25.7742448	1.5528804
321	26.0062844	1.5528804
372	26.3811176	1.5885788
421	26.7024032	1.606428
471	27.0950856	1.6242772
522	27.487768	1.6421264
571	27.8804504	1.6778248
622	28.290982	1.695674
671	28.6658152	1.7135232
721	29.0406484	1.7492216
771	29.4690292	1.7670708
821	29.9509576	1.8027692
871	30.3971876	1.8206184
921	30.8434176	1.8563168
971	31.2539492	1.874166
1021	31.7001792	1.9098644
1071	32.1107108	1.9277136
1121	32.485544	1.9455628
1171	32.931774	1.9812612
1221	33.3423056	1.9991104
1271	33.734988	2.0169596
1321	34.1276704	2.052658
1371	34.5203528	2.0705072
1421	34.9130352	2.0883564
1471	35.25217	2.1240548
1521	35.6805508	2.141904
1571	36.055384	2.1597532
1621	36.3766696	2.1776024
1671	36.6979552	2.1954516
1721	37.126336	2.23115
1771	37.48332	2.2489992
1821	37.8760024	2.2668484
1871	38.286534	2.3025468
1921	38.643518	2.320396
1971	40.1963984	2.409642

System: hafnium; phases: Crystal 1
Fixed: Pressure, kPa = 101.325
Property: Molar heat capacity at constant pressure, J/K/mol (Crystal 1); method: Resistive pulse heating
Temperature, K	Molar heat capacity at constant pressure, J/K/mol	uncertainty
2121	34.2883132	2.052658
2171	34.2883132	2.052658
2222	34.2883132	2.052658

System: hafnium; phases: Crystal
Property: Mass density, kg/m3 (Crystal); method: mass over volume
Temperature, K	Pressure, kPa	Mass density, kg/m3	uncertainty
298.1	101.325	13157	100

System: hafnium; phases: Crystal
Property: Mass density, kg/m3 (Crystal); method: mass over volume
Temperature, K	Pressure, kPa	Mass density, kg/m3	uncertainty
298.1	101.325	13239	96

System: hafnium; phases: Crystal
Fixed: Pressure, kPa = 101.325
Property: Thermal diffusivity, m2/s (Crystal); method: laser flash method
Temperature, K	Thermal diffusivity, m2/s	uncertainty
293	1.381e-05	5.5e-07
326	1.315e-05	5.3e-07
375	1.245e-05	5e-07
423	1.185e-05	4.7e-07
459	1.149e-05	4.6e-07
521	1.081e-05	4.3e-07
568	1.047e-05	4.2e-07
615	1.024e-05	4.1e-07
664	1.003e-05	4e-07
714	9.91e-06	4e-07
767	9.72e-06	3.9e-07
817	9.57e-06	3.8e-07
862	9.46e-06	3.8e-07
914	9.36e-06	3.7e-07
962	9.32e-06	3.7e-07
1012	9.29e-06	3.7e-07
1065	9.26e-06	3.7e-07
1113	9.27e-06	3.7e-07
1162	9.4e-06	3.8e-07
1215	9.45e-06	3.8e-07
1262	9.43e-06	3.8e-07
1314	9.5e-06	3.8e-07
1362	9.7e-06	3.9e-07
1417	9.96e-06	4e-07
1463	1.002e-05	4e-07

System: hafnium; phases: Crystal
Property: Mass density, kg/m3 (Crystal); method: mass over volume
Temperature, K	Pressure, kPa	Mass density, kg/m3	uncertainty
298.1	101.325	13225	96

System: hafnium; phases: Crystal
Fixed: Pressure, kPa = 101.325
Property: Thermal diffusivity, m2/s (Crystal); method: laser flash method
Temperature, K	Thermal diffusivity, m2/s	uncertainty
285	1.363e-05	5.5e-07
321	1.319e-05	5.3e-07
386	1.217e-05	4.9e-07
433	1.174e-05	4.7e-07
492	1.118e-05	4.5e-07
530	1.084e-05	4.3e-07
579	1.057e-05	4.2e-07
618	1.04e-05	4.2e-07
664	1.017e-05	4.1e-07
715	9.92e-06	4e-07
760	9.79e-06	3.9e-07
825	9.67e-06	3.9e-07
874	9.59e-06	3.8e-07
919	9.54e-06	3.8e-07
965	9.54e-06	3.8e-07
1017	9.54e-06	3.8e-07
1065	9.53e-06	3.8e-07
1118	9.59e-06	3.8e-07
1174	9.6e-06	3.8e-07
1222	9.65e-06	3.9e-07
1277	9.81e-06	3.9e-07
1332	9.85e-06	3.9e-07
1370	1.001e-05	4e-07
1430	1.021e-05	4.1e-07
1472	1.054e-05	4.2e-07
