Measured thermophysical data. Thermodynamic Properties of Ternary Liquid Mixtures of 2-Pyrrolidinone with Aromatic Hydrocarbons
Source: Int. J. Thermophys., 2010, 10.1007/s10765-010-0717-9
Compound 1: 2-pyrrolidinone, C4H7NO, InChI=1S/C4H7NO/c6-4-2-1-3-5-4/h1-3H2,(H,5,6)
Compound 2: toluene, C7H8, InChI=1S/C7H8/c1-7-5-3-2-4-6-7/h2-6H,1H3
Compound 3: 1,2-dimethylbenzene, C8H10, InChI=1S/C8H10/c1-7-5-3-4-6-8(7)2/h3-6H,1-2H3
Compound 4: 1,4-dimethylbenzene, C8H10, InChI=1S/C8H10/c1-7-3-5-8(2)6-4-7/h3-6H,1-2H3

System: 2-pyrrolidinone; phases: Liquid
Property: Mass density, kg/m3 (Liquid); method: Pycnometric method
Temperature, K	Pressure, kPa	Mass density, kg/m3	uncertainty
298.15	101.325	994.28	

System: toluene; phases: Liquid
Property: Mass density, kg/m3 (Liquid); method: Pycnometric method
Temperature, K	Pressure, kPa	Mass density, kg/m3	uncertainty
298.15	101.325	862.21	5.41

System: 1,2-dimethylbenzene; phases: Liquid
Property: Mass density, kg/m3 (Liquid); method: Pycnometric method
Temperature, K	Pressure, kPa	Mass density, kg/m3	uncertainty
298.15	101.325	875.99	5.58

System: 1,4-dimethylbenzene; phases: Liquid
Property: Mass density, kg/m3 (Liquid); method: Pycnometric method
Temperature, K	Pressure, kPa	Mass density, kg/m3	uncertainty
298.15	101.325	856.58	5.34

System: 1,2-dimethylbenzene + toluene + 2-pyrrolidinone; phases: Liquid
Fixed: Temperature, K = 308.15
Fixed: Pressure, kPa = 101
Property: Speed of sound, m/s (Liquid); method: Sing-around technique in a fixed-path interferometer
Mole fraction of 2-pyrrolidinone	Mole fraction of toluene	Speed of sound, m/s	uncertainty
0.0749	0.1086	1312	5
0.0987	0.8578	1296	5
0.1398	0.7924	1308	5
0.1813	0.7572	1323	5
0.1934	0.3082	1299	5
0.2086	0.4398	1302	5
0.2749	0.7013	1355	4
0.3014	0.2986	1366	4
0.3789	0.512	1381	4
0.4392	0.0435	1400	4
0.5246	0.4479	1430	4
0.5748	0.228	1396	3
0.5951	0.0856	1426	3
0.6312	0.2967	1448	3
0.714	0.0394	1475	3
0.8452	0.0532	1519	3

System: 1,2-dimethylbenzene + toluene + 2-pyrrolidinone; phases: Liquid
Fixed: Temperature, K = 308.15
Fixed: Pressure, kPa = 101
Property: Excess molar volume, m3/mol (Liquid); method: Direct dilatometry
Mole fraction of 2-pyrrolidinone	Mole fraction of toluene	Excess molar volume, m3/mol	uncertainty
0.0584	0.9141	-7.6e-08	2e-09
0.0755	0.8229	-9.9e-08	2e-09
0.1046	0.7674	-1.55e-07	3e-09
0.1229	0.1967	-1.07e-07	3e-09
0.1453	0.5616	-2.19e-07	3e-09
0.193	0.1994	-1.65e-07	3e-09
0.2588	0.3971	-3.54e-07	4e-09
0.2939	0.6361	-4.82e-07	5e-09
0.3756	0.4713	-5.93e-07	6e-09
0.41	0.4082	-6.05e-07	7e-09
0.4689	0.3229	-5.96e-07	7e-09
0.5313	0.1633	-4.37e-07	5e-09
0.7963	0.0885	-3.88e-07	5e-09
0.9319	0.0471	-2.43e-07	3e-09
0.9418	0.0321	-1.43e-07	3e-09

System: 1,4-dimethylbenzene + toluene + 2-pyrrolidinone; phases: Liquid
Fixed: Temperature, K = 308.15
Fixed: Pressure, kPa = 101
Property: Speed of sound, m/s (Liquid); method: Sing-around technique in a fixed-path interferometer
Mole fraction of 2-pyrrolidinone	Mole fraction of toluene	Speed of sound, m/s	uncertainty
0.0391	0.556	1268	5
0.065	0.8395	1282	5
0.1032	0.1346	1288	5
0.1381	0.1938	1293	5
0.1858	0.6657	1310	5
0.2328	0.4669	1320	5
0.2335	0.2531	1314	5
0.2587	0.0438	1317	5
0.3078	0.6112	1338	4
0.3981	0.5615	1364	4
0.5149	0.4362	1390	4
0.6233	0.3108	1425	3
0.6885	0.0999	1456	3
0.785	0.1065	1501	3

System: 1,4-dimethylbenzene + toluene + 2-pyrrolidinone; phases: Liquid
Fixed: Temperature, K = 308.15
Fixed: Pressure, kPa = 101
Property: Excess molar volume, m3/mol (Liquid); method: Direct dilatometry
Mole fraction of 2-pyrrolidinone	Mole fraction of toluene	Excess molar volume, m3/mol	uncertainty
0.0853	0.0784	4e-08	2e-09
0.1585	0.2149	2.61e-07	4e-09
0.1602	0.3766	8.3e-08	2e-09
0.1704	0.7382	-2.85e-07	4e-09
0.2149	0.1065	3.07e-07	4e-09
0.262	0.6346	-4.39e-07	5e-09
0.2704	0.3899	-1.49e-07	3e-09
0.3002	0.2011	4.72e-07	5e-09
0.3494	0.3146	-9.6e-08	2e-09
0.3776	0.5291	-5.65e-07	6e-09
0.4268	0.2821	-1.92e-07	3e-09
0.5079	0.4063	-6.35e-07	7e-09
0.5561	0.2356	-3.94e-07	5e-09
0.6152	0.3017	-6.21e-07	7e-09
0.6709	0.1137	-1.31e-07	3e-09
0.7244	0.2083	-5.18e-07	6e-09
0.8364	0.0816	-2.8e-07	4e-09
