Measured thermophysical data. Speeds of Sound and Isentropic Compressibilities in Binary Mixtures of 2-Propanol with Several 1-Alkanols at 298.15K
Source: Int. J. Thermophys., 2005, 10.1007/s10765-005-8101-x
Compound 1: propan-2-ol, C3H8O, InChI=1S/C3H8O/c1-3(2)4/h3-4H,1-2H3, purity 99%
Compound 2: propan-1-ol, C3H8O, InChI=1S/C3H8O/c1-2-3-4/h4H,2-3H2,1H3, purity 99%
Compound 3: butan-1-ol, C4H10O, InChI=1S/C4H10O/c1-2-3-4-5/h5H,2-4H2,1H3, purity 99%
Compound 4: octan-1-ol, C8H18O, InChI=1S/C8H18O/c1-2-3-4-5-6-7-8-9/h9H,2-8H2,1H3, purity 97%
Compound 5: hexan-1-ol, C6H14O, InChI=1S/C6H14O/c1-2-3-4-5-6-7/h7H,2-6H2,1H3, purity 98%

System: propan-2-ol; phases: Liquid
Property: Mass density, kg/m3 (Liquid); method: VIBTUB:UFactor:4
Temperature, K	Pressure, kPa	Mass density, kg/m3	uncertainty
298.15	101.325	781.91	0.62

System: propan-2-ol; phases: Liquid
Property: Speed of sound, m/s (Liquid); method: LVPAI:UFactor:2
Temperature, K	Pressure, kPa	Speed of sound, m/s	uncertainty
298.15	101.325	1141.3	2.7

System: propan-1-ol; phases: Liquid
Property: Mass density, kg/m3 (Liquid); method: VIBTUB:UFactor:4
Temperature, K	Pressure, kPa	Mass density, kg/m3	uncertainty
298.15	101.325	800.62	0.6

System: propan-1-ol; phases: Liquid
Property: Speed of sound, m/s (Liquid); method: LVPAI:UFactor:2
Temperature, K	Pressure, kPa	Speed of sound, m/s	uncertainty
298.15	101.325	1208.1	2.8

System: butan-1-ol; phases: Liquid
Property: Mass density, kg/m3 (Liquid); method: VIBTUB:UFactor:4
Temperature, K	Pressure, kPa	Mass density, kg/m3	uncertainty
298.15	101.325	806.14	0.59

System: butan-1-ol; phases: Liquid
Property: Speed of sound, m/s (Liquid); method: LVPAI:UFactor:2
Temperature, K	Pressure, kPa	Speed of sound, m/s	uncertainty
298.15	101.325	1240.8	2.9

System: octan-1-ol; phases: Liquid
Property: Mass density, kg/m3 (Liquid); method: VIBTUB:UFactor:16
Temperature, K	Pressure, kPa	Mass density, kg/m3	uncertainty
298.15	101.325	821.72	2.07

System: octan-1-ol; phases: Liquid
Property: Speed of sound, m/s (Liquid); method: LVPAI:UFactor:4
Temperature, K	Pressure, kPa	Speed of sound, m/s	uncertainty
298.15	101.325	1347.9	6.5

System: hexan-1-ol; phases: Liquid
Property: Mass density, kg/m3 (Liquid); method: VIBTUB:UFactor:8
Temperature, K	Pressure, kPa	Mass density, kg/m3	uncertainty
298.15	101.325	815.15	1.18

System: hexan-1-ol; phases: Liquid
Property: Speed of sound, m/s (Liquid); method: LVPAI:UFactor:4
Temperature, K	Pressure, kPa	Speed of sound, m/s	uncertainty
298.15	101.325	1303.6	5.9

System: propan-2-ol + propan-1-ol; phases: Liquid
Fixed: Pressure, kPa = 101
Fixed: Temperature, K = 298.15
Property: Speed of sound, m/s (Liquid); method: LVPAI:UFactor:4
Mole fraction of propan-2-ol	Speed of sound, m/s	uncertainty
0.1051	1201	5.4
0.195	1195.4	5.3
0.3049	1187.9	5.3
0.4062	1181.3	5.3
0.4941	1175.4	5.3
0.6029	1168	5.3
0.7067	1161	5.2
0.8063	1154.2	5.2
0.91	1147.5	5.2
0.9515	1144.5	5.2

System: propan-2-ol + propan-1-ol; phases: Liquid
Fixed: Pressure, kPa = 101
Fixed: Temperature, K = 298.15
Property: Mass density, kg/m3 (Liquid); method: VIBTUB:UFactor:8
Mole fraction of propan-2-ol	Mass density, kg/m3	uncertainty
0.1051	798.37	0.97
0.195	796.76	0.97
0.3049	794.67	0.98
0.4062	792.8	0.98
0.4941	791.17	0.99
0.6029	789.12	0.99
0.7067	787.16	1
0.8063	785.31	1
0.91	783.37	1.01
0.9515	782.54	1.01

System: propan-2-ol + butan-1-ol; phases: Liquid
Fixed: Pressure, kPa = 101
Fixed: Temperature, K = 298.15
Property: Speed of sound, m/s (Liquid); method: LVPAI:UFactor:4
Mole fraction of propan-2-ol	Speed of sound, m/s	uncertainty
0.0596	1235.6	5.5
0.1039	1231.8	5.5
0.2093	1223.2	5.4
0.3024	1214.8	5.4
0.3977	1206.1	5.4
0.5033	1195.9	5.4
0.599	1186.5	5.3
0.6946	1176.4	5.3
0.8062	1164.1	5.3
0.8938	1153.6	5.2

System: propan-2-ol + butan-1-ol; phases: Liquid
Fixed: Pressure, kPa = 101
Fixed: Temperature, K = 298.15
Property: Mass density, kg/m3 (Liquid); method: VIBTUB:UFactor:8
Mole fraction of propan-2-ol	Mass density, kg/m3	uncertainty
0.0596	804.62	0.95
0.1039	803.68	0.95
0.2093	801.62	0.96
0.3024	799.57	0.96
0.3977	797.49	0.97
0.5033	794.92	0.98
0.599	792.68	0.98
0.6946	790.21	0.99
0.8062	787.19	1
0.8938	784.58	1

System: propan-2-ol + octan-1-ol; phases: Liquid
Fixed: Pressure, kPa = 101
Fixed: Temperature, K = 298.15
Property: Speed of sound, m/s (Liquid); method: LVPAI:UFactor:4
Mole fraction of propan-2-ol	Speed of sound, m/s	uncertainty
0.0862	1338.7	6.4
0.2078	1324.2	6.2
0.2977	1311.6	6.1
0.4059	1296	6
0.5012	1279.4	5.9
0.5991	1259.8	5.7
0.6994	1237.7	5.6
0.7985	1211.1	5.5
0.8993	1179.3	5.3
0.9453	1162.8	5.3

System: propan-2-ol + octan-1-ol; phases: Liquid
Fixed: Pressure, kPa = 101
Fixed: Temperature, K = 298.15
Property: Mass density, kg/m3 (Liquid); method: VIBTUB:UFactor:8
Mole fraction of propan-2-ol	Mass density, kg/m3	uncertainty
0.0862	819.96	1.44
0.2078	817.18	1.36
0.2977	814.58	1.3
0.4059	811.74	1.24
0.5012	808.6	1.18
0.5991	804.77	1.13
0.6994	800.52	1.09
0.7985	795.28	1.05
0.8993	789.09	1.03
0.9453	785.8	1.02

System: propan-2-ol + hexan-1-ol; phases: Liquid
Fixed: Pressure, kPa = 101
Fixed: Temperature, K = 298.15
Property: Speed of sound, m/s (Liquid); method: LVPAI:UFactor:4
Mole fraction of propan-2-ol	Speed of sound, m/s	uncertainty
0.039	1299.6	5.9
0.1037	1292.9	5.9
0.2075	1281.1	5.8
0.3051	1269.2	5.7
0.4032	1255.9	5.7
0.5067	1241.4	5.6
0.6044	1225	5.5
0.7047	1207.3	5.4
0.8059	1186.8	5.4
0.9081	1164.3	5.3

System: propan-2-ol + hexan-1-ol; phases: Liquid
Fixed: Pressure, kPa = 101
Fixed: Temperature, K = 298.15
Property: Mass density, kg/m3 (Liquid); method: VIBTUB:UFactor:8
Mole fraction of propan-2-ol	Mass density, kg/m3	uncertainty
0.039	814.4	1.16
0.1037	813	1.15
0.2075	810.57	1.12
0.3051	808.2	1.1
0.4032	805.42	1.08
0.5067	802.47	1.06
0.6044	799.08	1.04
0.7047	795.43	1.03
0.8059	791.12	1.02
0.9081	786.44	1.01
