Measured thermophysical data. Measurements of the Properties of Binary Mixtures of Dimethylsulphoxide (DMSO) with 1-Alkanols (C4, C6, C7) at 303.15K
Source: Int. J. Thermophys., 2005, 10.1007/s10765-005-8102-9
Compound 1: dimethyl sulfoxide, C2H6OS, InChI=1S/C2H6OS/c1-4(2)3/h1-2H3, purity 99%
Compound 2: butan-1-ol, C4H10O, InChI=1S/C4H10O/c1-2-3-4-5/h5H,2-4H2,1H3, purity 99.5%
Compound 3: hexan-1-ol, C6H14O, InChI=1S/C6H14O/c1-2-3-4-5-6-7/h7H,2-6H2,1H3, purity 98%
Compound 4: heptan-1-ol, C7H16O, InChI=1S/C7H16O/c1-2-3-4-5-6-7-8/h8H,2-7H2,1H3, purity 99%

System: dimethyl sulfoxide; phases: Liquid
Property: Refractive index (Na D-line) (Liquid); method: ABBE:UFactor:2
Temperature, K	Pressure, kPa	Refractive index (Na D-line)	uncertainty
303.15	101.325	1.4751	0.0007

System: dimethyl sulfoxide; phases: Liquid
Property: Speed of sound, m/s (Liquid); method: LVPAI:UFactor:2
Pressure, kPa	Temperature, K	Speed of sound, m/s	uncertainty
101	303.15	1490.9	5

System: dimethyl sulfoxide; phases: Liquid
Property: Mass density, kg/m3 (Liquid); method: PYCNOM:UFactor:4
Temperature, K	Pressure, kPa	Mass density, kg/m3	uncertainty
303.15	101	1094.9	1.3

System: butan-1-ol; phases: Liquid
Property: Refractive index (Na D-line) (Liquid); method: ABBE:UFactor:2
Temperature, K	Pressure, kPa	Refractive index (Na D-line)	uncertainty
303.15	101.325	1.3946	0.0007

System: butan-1-ol; phases: Liquid
Property: Speed of sound, m/s (Liquid); method: LVPAI:UFactor:2
Pressure, kPa	Temperature, K	Speed of sound, m/s	uncertainty
101	303.15	1231	4.7

System: butan-1-ol; phases: Liquid
Property: Mass density, kg/m3 (Liquid); method: PYCNOM:UFactor:4
Temperature, K	Pressure, kPa	Mass density, kg/m3	uncertainty
303.15	101	802	0.8

System: hexan-1-ol; phases: Liquid
Property: Refractive index (Na D-line) (Liquid); method: ABBE:UFactor:2
Temperature, K	Pressure, kPa	Refractive index (Na D-line)	uncertainty
303.15	101.325	1.4134	0.0008

System: hexan-1-ol; phases: Liquid
Property: Speed of sound, m/s (Liquid); method: LVPAI:UFactor:4
Pressure, kPa	Temperature, K	Speed of sound, m/s	uncertainty
101	303.15	1282	6.7

System: hexan-1-ol; phases: Liquid
Property: Mass density, kg/m3 (Liquid); method: PYCNOM:UFactor:8
Temperature, K	Pressure, kPa	Mass density, kg/m3	uncertainty
303.15	101	811.8	1.8

System: heptan-1-ol; phases: Liquid
Property: Refractive index (Na D-line) (Liquid); method: ABBE:UFactor:2
Temperature, K	Pressure, kPa	Refractive index (Na D-line)	uncertainty
303.15	101.325	1.4201	0.0007

System: heptan-1-ol; phases: Liquid
Property: Speed of sound, m/s (Liquid); method: LVPAI:UFactor:4
Pressure, kPa	Temperature, K	Speed of sound, m/s	uncertainty
101	303.15	1306	6.6

System: heptan-1-ol; phases: Liquid
Property: Mass density, kg/m3 (Liquid); method: PYCNOM:UFactor:4
Temperature, K	Pressure, kPa	Mass density, kg/m3	uncertainty
303.15	101	815.7	0.9

System: dimethyl sulfoxide + butan-1-ol; phases: Liquid
Fixed: Pressure, kPa = 101
Fixed: Temperature, K = 303.15
Property: Refractive index (Na D-line) (Liquid); method: ABBE:UFactor:2
Mole fraction of dimethyl sulfoxide	Refractive index (Na D-line)	uncertainty
0	1.3946	0.0007
0.1034	1.4001	0.0007
0.2122	1.4064	0.0007
0.3156	1.4127	0.0007
0.4009	1.4185	0.0007
0.5073	1.4263	0.0007
0.6002	1.4335	0.0007
0.6957	1.4417	0.0007
0.8112	1.4527	0.0007
0.9051	1.4633	0.0007
1	1.4751	0.0007

System: dimethyl sulfoxide + butan-1-ol; phases: Liquid
Fixed: Pressure, kPa = 101
Fixed: Temperature, K = 303.15
Property: Speed of sound, m/s (Liquid); method: LVPAI:UFactor:2
Mole fraction of dimethyl sulfoxide	Speed of sound, m/s	uncertainty
0	1231	4.7
0.1034	1247.5	4.7
0.2122	1267.5	4.8
0.3156	1288	4.8
0.4009	1305.5	4.8
0.5073	1327.3	4.8
0.6002	1347.5	4.8
0.6957	1371	4.9
0.8112	1406.6	4.9
0.9051	1443	5
1	1490.9	5

System: dimethyl sulfoxide + butan-1-ol; phases: Liquid
Fixed: Temperature, K = 303.15
Fixed: Pressure, kPa = 101
Property: Mass density, kg/m3 (Liquid); method: PYCNOM:UFactor:4
Mole fraction of dimethyl sulfoxide	Mass density, kg/m3	uncertainty
0	802	0.8
0.1034	825.7	0.8
0.2122	851.8	0.9
0.3156	877.9	0.9
0.4009	900.5	1
0.5073	930.1	1
0.6002	957.2	1
0.6957	986.6	1.1
0.8112	1024.6	1.2
0.9051	1058.4	1.2
1	1094.9	1.3

System: dimethyl sulfoxide + hexan-1-ol; phases: Liquid
Fixed: Pressure, kPa = 101
Fixed: Temperature, K = 303.15
Property: Refractive index (Na D-line) (Liquid); method: ABBE:UFactor:2
Mole fraction of dimethyl sulfoxide	Refractive index (Na D-line)	uncertainty
0	1.4134	0.0008
0.1336	1.4149	0.0008
0.2712	1.4185	0.0008
0.3808	1.4216	0.0008
0.4814	1.4259	0.0008
0.5762	1.4311	0.0008
0.666	1.4372	0.0007
0.765	1.4448	0.0007
0.848	1.4535	0.0007
0.9246	1.4629	0.0007
1	1.4751	0.0007

System: dimethyl sulfoxide + hexan-1-ol; phases: Liquid
Fixed: Pressure, kPa = 101
Fixed: Temperature, K = 303.15
Property: Speed of sound, m/s (Liquid); method: LVPAI:UFactor:4
Mole fraction of dimethyl sulfoxide	Speed of sound, m/s	uncertainty
0	1282	6.7
0.1336	1300.8	6.7
0.2712	1311.6	6.7
0.3808	1325.3	6.7
0.4814	1336.5	6.7
0.5762	1349.5	6.7
0.666	1368	6.8
0.765	1395	6.8
0.848	1420.5	6.8
0.9246	1448.5	6.9
1	1490.9	7

System: dimethyl sulfoxide + hexan-1-ol; phases: Liquid
Fixed: Temperature, K = 303.15
Fixed: Pressure, kPa = 101
Property: Mass density, kg/m3 (Liquid); method: PYCNOM:UFactor:8
Mole fraction of dimethyl sulfoxide	Mass density, kg/m3	uncertainty
0	811.8	1.8
0.1336	832.6	1.8
0.2712	857.6	1.9
0.3808	880.7	1.9
0.4814	904.6	1.9
0.5762	929.7	2
0.666	956.3	2
0.765	989.2	2.1
0.848	1021.1	2.2
0.9246	1054.7	2.3
1	1094.9	2.4

System: dimethyl sulfoxide + heptan-1-ol; phases: Liquid
Fixed: Pressure, kPa = 101
Fixed: Temperature, K = 303.15
Property: Refractive index (Na D-line) (Liquid); method: ABBE:UFactor:2
Mole fraction of dimethyl sulfoxide	Refractive index (Na D-line)	uncertainty
0	1.4201	0.0007
0.1096	1.4209	0.0007
0.2535	1.4242	0.0007
0.3668	1.4277	0.0007
0.474	1.4312	0.0007
0.5788	1.4355	0.0007
0.6708	1.4402	0.0007
0.7598	1.4458	0.0007
0.8376	1.4528	0.0007
0.9031	1.4615	0.0007
1	1.4751	0.0007

System: dimethyl sulfoxide + heptan-1-ol; phases: Liquid
Fixed: Pressure, kPa = 101
Fixed: Temperature, K = 303.15
Property: Speed of sound, m/s (Liquid); method: LVPAI:UFactor:4
Mole fraction of dimethyl sulfoxide	Speed of sound, m/s	uncertainty
0	1306	6.6
0.1096	1312.3	6.6
0.2535	1319.5	6.6
0.3668	1329.9	6.6
0.474	1338	6.6
0.5788	1351.5	6.7
0.6708	1369	6.7
0.7598	1384.6	6.7
0.8376	1409.3	6.8
0.9031	1428.6	6.8
1	1490.9	7

System: dimethyl sulfoxide + heptan-1-ol; phases: Liquid
Fixed: Temperature, K = 303.15
Fixed: Pressure, kPa = 101
Property: Mass density, kg/m3 (Liquid); method: PYCNOM:UFactor:4
Mole fraction of dimethyl sulfoxide	Mass density, kg/m3	uncertainty
0	815.7	0.9
0.1096	825.7	0.9
0.2535	846	0.9
0.3668	866.8	1
0.474	889.4	1
0.5788	915.8	1
0.6708	943.2	1.1
0.7598	973.2	1.1
0.8376	1003.5	1.2
0.9031	1034.5	1.2
1	1094.9	1.3
