Measured thermophysical data. Thermal-Conductivity Measurements of Aqueous Orthophosphoric Acid Solutions in the Temperature Range from (293 to 400) K and at Pressures up to 15 MPa
Source: Int. J. Thermophys., 2014, 10.1007/s10765-014-1598-0
Compound 1: phosphoric acid, H3O4P, InChI=1S/H3O4P/c1-5(2,3)4/h(H3,1,2,3,4), purity 99.5%
Compound 2: water, H2O, InChI=1S/H2O/h1H2

System: water; phases: Liquid
Property: Thermal conductivity, W/m/K (Liquid); method: Parallel plate method
Temperature, K	Pressure, kPa	Thermal conductivity, W/m/K	uncertainty
292.04	101	0.596	0.025
301.85	101	0.612	0.026
308.34	101	0.622	0.026
318.33	101	0.634	0.026
327.48	101	0.645	0.027
337.32	101	0.655	0.027
346.93	101	0.662	0.028
356.69	101	0.668	0.028
371.79	101	0.677	0.028
292.37	5000	0.599	0.025
313.16	5000	0.634	0.026
332.85	5000	0.656	0.027
351.91	5000	0.671	0.028
364.08	5000	0.679	0.028
382.41	5000	0.686	0.029
398.77	5000	0.688	0.029
292.41	15000	0.606	0.025
313.35	15000	0.636	0.027
332.62	15000	0.657	0.027
353.17	15000	0.673	0.028
364.53	15000	0.682	0.028
382.36	15000	0.688	0.029
399.64	15000	0.691	0.029

System: phosphoric acid + water; phases: Liquid
Property: Thermal conductivity, W/m/K (Liquid); method: Parallel plate method
Temperature, K	Pressure, kPa	Mass fraction of phosphoric acid	Thermal conductivity, W/m/K	uncertainty
292.04	101	0	0.596	0.025
301.85	101	0	0.612	0.026
308.34	101	0	0.622	0.026
318.33	101	0	0.634	0.026
327.48	101	0	0.645	0.027
337.32	101	0	0.655	0.027
346.93	101	0	0.662	0.028
356.69	101	0	0.668	0.028
371.79	101	0	0.677	0.028
293.16	101	0.08	0.566	0.024
298.48	101	0.08	0.575	0.024
313.91	101	0.08	0.597	0.025
320.54	101	0.08	0.607	0.025
342.83	101	0.08	0.63	0.026
345.9	101	0.08	0.634	0.026
355.76	101	0.08	0.642	0.027
369.33	101	0.08	0.65	0.027
294.32	101	0.155	0.529	0.022
303.03	101	0.155	0.545	0.023
313.94	101	0.155	0.561	0.023
314.07	101	0.155	0.563	0.024
321.54	101	0.155	0.571	0.024
330.25	101	0.155	0.582	0.024
342.35	101	0.155	0.598	0.025
343.21	101	0.155	0.599	0.025
352.88	101	0.155	0.607	0.025
360.16	101	0.155	0.613	0.026
360.21	101	0.155	0.614	0.026
370.07	101	0.155	0.618	0.026
292.71	101	0.5	0.482	0.02
300.86	101	0.5	0.493	0.021
315.13	101	0.5	0.514	0.021
329.59	101	0.5	0.53	0.022
339.46	101	0.5	0.538	0.022
354.94	101	0.5	0.55	0.023
372.13	101	0.5	0.56	0.023
292.37	5000	0	0.599	0.025
313.16	5000	0	0.634	0.026
332.85	5000	0	0.656	0.027
351.91	5000	0	0.671	0.028
364.08	5000	0	0.679	0.028
382.41	5000	0	0.686	0.029
398.77	5000	0	0.688	0.029
291.42	5000	0.08	0.568	0.024
315.16	5000	0.08	0.609	0.025
334.07	5000	0.08	0.633	0.026
350.49	5000	0.08	0.646	0.027
365.14	5000	0.08	0.667	0.028
380.93	5000	0.08	0.669	0.028
400.05	5000	0.08	0.672	0.028
294.15	5000	0.155	0.545	0.023
310.72	5000	0.155	0.568	0.024
332.65	5000	0.155	0.592	0.025
353.04	5000	0.155	0.615	0.026
364.17	5000	0.155	0.626	0.026
385.31	5000	0.155	0.636	0.027
397.89	5000	0.155	0.635	0.026
293.26	5000	0.5	0.489	0.02
313.19	5000	0.5	0.516	0.022
330.43	5000	0.5	0.54	0.023
352.82	5000	0.5	0.569	0.024
363.17	5000	0.5	0.564	0.024
383.52	5000	0.5	0.575	0.024
400.18	5000	0.5	0.58	0.024
292.41	15000	0	0.606	0.025
313.35	15000	0	0.636	0.027
332.62	15000	0	0.657	0.027
353.17	15000	0	0.673	0.028
364.53	15000	0	0.682	0.028
382.36	15000	0	0.688	0.029
399.64	15000	0	0.691	0.029
291.7	15000	0.08	0.578	0.024
315.18	15000	0.08	0.613	0.026
334.29	15000	0.08	0.641	0.027
350.37	15000	0.08	0.654	0.027
364.98	15000	0.08	0.666	0.028
380.77	15000	0.08	0.673	0.028
399.84	15000	0.08	0.677	0.028
294.23	15000	0.155	0.556	0.023
310.89	15000	0.155	0.58	0.024
332.5	15000	0.155	0.605	0.025
353.17	15000	0.155	0.622	0.026
364.06	15000	0.155	0.632	0.026
385.14	15000	0.155	0.64	0.027
400.07	15000	0.155	0.642	0.027
293.15	15000	0.5	0.498	0.021
312.81	15000	0.5	0.525	0.022
330.24	15000	0.5	0.545	0.023
352.63	15000	0.5	0.566	0.024
363.2	15000	0.5	0.572	0.024
383.41	15000	0.5	0.58	0.024
399.66	15000	0.5	0.583	0.024
