Measured thermophysical data. Topological Investigations of Excess Molar Volumes and Excess Isentropic Compressibilities of Ternary Mixtures Containing Pyrrolidin-2-one at 308.15 K
Source: Int. J. Thermophys., 2010, 10.1007/s10765-010-0861-2
Compound 1: 2-pyrrolidinone, C4H7NO, InChI=1S/C4H7NO/c6-4-2-1-3-5-4/h1-3H2,(H,5,6), purity 98%
Compound 2: benzene, C6H6, InChI=1S/C6H6/c1-2-4-6-5-3-1/h1-6H, purity 98%
Compound 3: toluene, C7H8, InChI=1S/C7H8/c1-7-5-3-2-4-6-7/h2-6H,1H3, purity 98%
Compound 4: propan-1-ol, C3H8O, InChI=1S/C3H8O/c1-2-3-4/h4H,2-3H2,1H3, purity 98%

System: 2-pyrrolidinone; phases: Liquid
Property: Mass density, kg/m3 (Liquid); method: Pycnometric method
Temperature, K	Pressure, kPa	Mass density, kg/m3	uncertainty
298.15	101.325	1107.26	1.64

System: 2-pyrrolidinone; phases: Liquid
Property: Speed of sound, m/s (Liquid); method: LVPAI:UFactor:4
Temperature, K	Pressure, kPa	Speed of sound, m/s	uncertainty
308.15	101.325	1603	7

System: benzene; phases: Liquid
Property: Mass density, kg/m3 (Liquid); method: Pycnometric method
Temperature, K	Pressure, kPa	Mass density, kg/m3	uncertainty
298.15	101.325	873.62	1.06

System: benzene; phases: Liquid
Property: Speed of sound, m/s (Liquid); method: LVPAI:UFactor:4
Temperature, K	Pressure, kPa	Speed of sound, m/s	uncertainty
298.15	101.325	1298	6

System: toluene; phases: Liquid
Property: Mass density, kg/m3 (Liquid); method: Pycnometric method
Temperature, K	Pressure, kPa	Mass density, kg/m3	uncertainty
298.15	101.325	862.23	1.03

System: toluene; phases: Liquid
Property: Speed of sound, m/s (Liquid); method: LVPAI:UFactor:4
Temperature, K	Pressure, kPa	Speed of sound, m/s	uncertainty
298.15	101.325	1305	6

System: propan-1-ol; phases: Liquid
Property: Mass density, kg/m3 (Liquid); method: Pycnometric method
Temperature, K	Pressure, kPa	Mass density, kg/m3	uncertainty
298.15	101.325	799.28	0.9

System: propan-1-ol; phases: Liquid
Property: Speed of sound, m/s (Liquid); method: LVPAI:UFactor:4
Temperature, K	Pressure, kPa	Speed of sound, m/s	uncertainty
298.15	101.325	1188	6

System: propan-1-ol + benzene; phases: Liquid
Fixed: Pressure, kPa = 101
Fixed: Temperature, K = 308.15
Fixed: Frequency, MHz = 2
Property: Speed of sound, m/s (Liquid); method: LVPAI:UFactor:4
Mole fraction of benzene	Speed of sound, m/s	uncertainty
0.0852	1192	6
0.1733	1196	6
0.2644	1200	6
0.3059	1201	6
0.3586	1203	6
0.3995	1204	6
0.4561	1206	6
0.5274	1208	6
0.582	1210	6
0.6618	1213	6
0.7267	1216	6
0.7703	1219	6
0.883	1233	6
0.9335	1242	6

System: propan-1-ol + toluene; phases: Liquid
Fixed: Pressure, kPa = 101
Fixed: Temperature, K = 308.15
Fixed: Frequency, MHz = 2
Property: Speed of sound, m/s (Liquid); method: LVPAI:UFactor:4
Mole fraction of toluene	Speed of sound, m/s	uncertainty
0.0724	1193	6
0.1494	1199	6
0.2314	1204	6
0.319	1209	6
0.3586	1211	6
0.4352	1216	6
0.5131	1220	6
0.5724	1224	6
0.6211	1227	6
0.6846	1231	6
0.7376	1235	6
0.7829	1239	6
0.8635	1247	6
0.9243	1253	6

System: propan-1-ol + benzene + 2-pyrrolidinone; phases: Liquid
Fixed: Temperature, K = 308.15
Fixed: Pressure, kPa = 101
Property: Excess molar volume, m3/mol (Liquid); method: DIRDIL:UFactor:4
Mole fraction of 2-pyrrolidinone	Mole fraction of benzene	Excess molar volume, m3/mol	uncertainty
0.0536	0.9131	-9.3e-08	1e-08
0.0686	0.8037	-7.2e-08	1e-08
0.0986	0.6178	-5.9e-08	9e-09
0.1083	0.7697	-1.68e-07	1e-08
0.1223	0.6538	-1.36e-07	1e-08
0.1427	0.5689	-1.43e-07	1e-08
0.1684	0.5603	-1.96e-07	1e-08
0.1931	0.1522	-8.9e-08	1e-08
0.2276	0.1931	-1.24e-07	1e-08
0.2506	0.2352	-1.62e-07	1e-08
0.2767	0.2006	-1.8e-07	1e-08
0.2911	0.3889	-3.17e-07	1e-08
0.3012	0.2136	-2.1e-07	1e-08
0.3123	0.4704	-4.01e-07	1.1e-08
0.3501	0.3866	-3.89e-07	1.1e-08
0.3849	0.2968	-3.63e-07	1e-08
0.3965	0.1899	-2.84e-07	1e-08
0.4182	0.4093	-4.85e-07	1.1e-08
0.4513	0.3116	-4.43e-07	1.1e-08
0.4791	0.2238	-3.76e-07	1e-08
0.5058	0.1949	-3.64e-07	1e-08
0.5313	0.1642	-3.49e-07	1e-08
0.5736	0.1956	-3.98e-07	1.1e-08
0.6045	0.1573	-3.67e-07	1e-08
0.6326	0.1317	-3.43e-07	1e-08
0.6839	0.0676	-2.89e-07	1e-08
0.7127	0.1395	-3.48e-07	1e-08
0.7501	0.0335	-2.49e-07	1e-08
0.8046	0.1128	-2.88e-07	1e-08
0.8133	0.0789	-2.45e-07	1e-08
0.9096	0.0535	-1.53e-07	1e-08

System: propan-1-ol + benzene + 2-pyrrolidinone; phases: Liquid
Fixed: Pressure, kPa = 101
Fixed: Temperature, K = 308.15
Fixed: Frequency, MHz = 2
Property: Speed of sound, m/s (Liquid); method: LVPAI:UFactor:4
Mole fraction of 2-pyrrolidinone	Mole fraction of benzene	Speed of sound, m/s	uncertainty
0.0926	0.8862	1280	6
0.1138	0.8281	1279	6
0.1397	0.0549	1239	6
0.1585	0.4799	1278	6
0.1894	0.7325	1298	6
0.1984	0.0424	1260	6
0.2341	0.3279	1307	6
0.2778	0.6655	1326	6
0.2901	0.3084	1331	6
0.3006	0.0858	1304	6
0.3463	0.2581	1353	6
0.3827	0.5615	1356	6
0.3991	0.2243	1373	6
0.4017	0.0859	1346	6
0.4295	0.2319	1388	6
0.4515	0.3552	1394	6
0.4802	0.4109	1393	6
0.499	0.0427	1383	6
0.5412	0.1933	1434	6
0.573	0.2675	1443	6
0.5975	0.1851	1457	6
0.605	0.0863	1442	6
0.6615	0.134	1479	6
0.7193	0.1759	1500	7
0.7514	0.0584	1505	7
0.7737	0.063	1516	7
0.8155	0.0746	1535	7
0.8615	0.0867	1553	7
0.8689	0.0755	1555	7
0.9073	0.0525	1568	7

System: propan-1-ol + toluene + 2-pyrrolidinone; phases: Liquid
Fixed: Temperature, K = 308.15
Fixed: Pressure, kPa = 101
Property: Excess molar volume, m3/mol (Liquid); method: DIRDIL:UFactor:4
Mole fraction of 2-pyrrolidinone	Mole fraction of toluene	Excess molar volume, m3/mol	uncertainty
0.0538	0.9212	-8.1e-08	1e-08
0.0892	0.0614	-7.8e-08	1e-08
0.0964	0.068	-8.1e-08	1e-08
0.1026	0.0721	-8.8e-08	1e-08
0.1399	0.7593	-1.59e-07	1e-08
0.1736	0.1284	-1.71e-07	1e-08
0.2186	0.1407	-1.82e-07	1e-08
0.2472	0.1594	-2.06e-07	1e-08
0.2853	0.2354	-2.79e-07	1e-08
0.3067	0.5185	-2.16e-07	1e-08
0.3198	0.5316	-2.09e-07	1e-08
0.375	0.4225	-2.85e-07	1e-08
0.4271	0.4192	-2.82e-07	1e-08
0.4698	0.3407	-3.61e-07	1e-08
0.5146	0.3048	-3.92e-07	1.1e-08
0.5491	0.2756	-4.05e-07	1.1e-08
0.574	0.1699	-4.23e-07	1.1e-08
0.6047	0.1505	-4.14e-07	1.1e-08
0.641	0.1348	-4.02e-07	1.1e-08
0.6488	0.2145	-4.12e-07	1.1e-08
0.6507	0.1837	-4.08e-07	1.1e-08
0.6942	0.1672	-3.95e-07	1.1e-08
0.7659	0.1063	-3.36e-07	1e-08
0.7801	0.1129	-3.27e-07	1e-08
0.7917	0.07	-2.89e-07	1e-08
0.8192	0.0658	-2.65e-07	1e-08
0.8508	0.0734	-2.47e-07	1e-08
0.8701	0.0583	-2.15e-07	1e-08
0.8852	0.0629	-2.05e-07	1e-08
0.905	0.0459	-1.68e-07	1e-08
0.9411	0.0372	-1.2e-07	1e-08

System: propan-1-ol + toluene + 2-pyrrolidinone; phases: Liquid
Fixed: Pressure, kPa = 101
Fixed: Temperature, K = 308.15
Fixed: Frequency, MHz = 2
Property: Speed of sound, m/s (Liquid); method: LVPAI:UFactor:4
Mole fraction of 2-pyrrolidinone	Mole fraction of toluene	Speed of sound, m/s	uncertainty
0.0923	0.8714	1291	6
0.1069	0.8485	1293	6
0.1126	0.0659	1232	6
0.1315	0.8014	1298	6
0.1879	0.7701	1317	6
0.2439	0.1012	1295	6
0.2857	0.6431	1332	6
0.3113	0.6251	1339	6
0.3436	0.1345	1348	6
0.3723	0.5529	1349	6
0.4074	0.073	1364	6
0.4165	0.1011	1375	6
0.4211	0.5176	1363	6
0.4402	0.4583	1361	6
0.4681	0.1034	1399	6
0.4889	0.1056	1409	6
0.5025	0.036	1396	6
0.5145	0.3689	1385	6
0.5378	0.0964	1427	6
0.5625	0.2935	1409	6
0.5816	0.0512	1436	6
0.6136	0.0733	1455	6
0.6214	0.2131	1443	6
0.6856	0.1235	1478	6
0.7404	0.1517	1486	6
0.7942	0.0834	1515	7
0.8738	0.0737	1542	7
0.8953	0.0564	1552	7
0.9382	0.0303	1572	7
