Measured thermophysical data. Thermophysical Properties of Solid Phase Zirconium at High Temperatures
Source: Int. J. Thermophys., 2006, 10.1007/s10765-006-0080-z
Compound 1: zirconium, Zr, InChI=1S/Zr, purity 99.79%

System: zirconium; phases: Crystal 2, Crystal 1, Air at 1 atmosphere
Property: Triple point temperature, K (Crystal 2); method: Laser pulse heating
Triple point temperature, K	uncertainty
1141.4	10.5

System: zirconium; phases: Crystal 1
Fixed: Pressure, kPa = 101.325
Property: Molar heat capacity at constant pressure, J/K/mol (Crystal 1); method: Laser pulse heating
Temperature, K	Molar heat capacity at constant pressure, J/K/mol	uncertainty
1143	52.2895968	5.5464192
1148	42.0360192	5.5920312
1153	33.8258592	4.4334864
1163	30.9979152	2.9465352
1173	29.5839432	1.8336024
1223	29.7116568	0.8939952
1273	30.058308	0.9031176
1323	30.2316336	0.9031176
1373	30.3046128	0.91224
1423	30.5326728	0.91224
1473	30.7151208	0.9213624
1523	30.9066912	0.9304848
1573	31.3628112	0.9396072
1623	31.3445664	0.9396072
1673	31.5908712	0.9487296
1723	32.0743584	0.957852
1773	32.795028	0.9852192
1823	33.3058824	1.003464
1873	33.4974528	1.003464
1923	33.6799008	1.0125864
1973	34.2272448	1.0308312

System: zirconium; phases: Crystal 2
Fixed: Pressure, kPa = 101.325
Property: Molar heat capacity at constant pressure, J/K/mol (Crystal 2); method: Laser pulse heating
Temperature, K	Molar heat capacity at constant pressure, J/K/mol	uncertainty
293	26.3090016	1.733256
323	26.5735512	1.3592376
373	26.8928352	0.9669744
423	27.3124656	0.9031176
473	27.777708	0.8848728
523	28.2703176	0.8757504
573	28.8176616	0.8939952
623	29.328516	0.91224
673	29.8849824	0.9304848
723	30.5965296	0.9487296
773	31.2350976	0.9396072
823	31.8736656	0.957852
873	32.5304784	0.9760968
923	33.2602704	0.9943416
973	33.935328	1.0217088
1023	34.6012632	1.0399536
1073	35.2307088	1.0581984
1083	35.4222792	1.0581984
1093	35.8419096	1.2588912
1103	36.8818632	1.5872976
1113	39.4817472	2.2076208
1123	43.1215848	3.19284
1128	45.6211224	4.013856
1133	49.0876344	5.2545024
1138	61.4211192	8.164548

System: zirconium; phases: Crystal 2
Fixed: Pressure, kPa = 101.325
Property: Thermal diffusivity, m2/s (Crystal 2); method: Laser flash
Temperature, K	Thermal diffusivity, m2/s	uncertainty
289	1.25e-05	1.7e-06
327	1.171e-05	7e-07
379	1.106e-05	4e-07
423	1.068e-05	5e-07
473	1.035e-05	2e-07
524	1.011e-05	6e-07
569	9.95e-06	2e-07
621	9.84e-06	8e-07
670	9.74e-06	7e-07
715	9.76e-06	5e-07
772	9.89e-06	6e-07
827	9.97e-06	5e-07
872	1.007e-05	1.2e-06
923	1.023e-05	2e-07
970	1.027e-05	1.6e-06
1023	1.048e-05	6e-07
1068	1.06e-05	8e-07
1121	9.27e-06	9e-07
1132	8.29e-06	1.7e-06

System: zirconium; phases: Crystal 1
Fixed: Pressure, kPa = 101.325
Property: Thermal diffusivity, m2/s (Crystal 1); method: Laser flash
Temperature, K	Thermal diffusivity, m2/s	uncertainty
1143	7.99e-06	6e-06
1150	1.087e-05	2.3e-06
1177	1.41e-05	5e-07
1218	1.434e-05	9e-07
1272	1.479e-05	3e-07
1317	1.497e-05	1.9e-06
1370	1.51e-05	8e-07
1431	1.571e-05	1.8e-06
1468	1.566e-05	2.3e-06
