Measured thermophysical data. Investigation of the Ice Water Vapor Equilibrium Along the Sublimation Line
Source: Int. J. Thermophys., 2012, 10.1007/s10765-011-1128-2
Compound 1: water, H2O, InChI=1S/H2O/h1H2, purity 99.99%

System: water; phases: Crystal, Gas
Property: Vapor or sublimation pressure, kPa (Crystal); method: CCELL:UFactor:0.5
Temperature, K	Vapor or sublimation pressure, kPa	uncertainty
223.15	0.003925	0.000109
228.15	0.007147	0.000161
233.15	0.012768	0.000263
238.14	0.022208	0.000336
243.16	0.037906	0.000459
248.16	0.06315	0.000659
253.14	0.103049	0.000975
258.15	0.165048	0.001188
263.15	0.25965	0.001584
268.15	0.401638	0.002178
273.16	0.611657	0.002994
