Measured thermophysical data. Low-Temperature Heat Capacities and Standard Molar Enthalpy of Formation of Potassium Benzoate C7H5O2K(s)
Source: Int. J. Thermophys., 2009, 10.1007/s10765-009-0568-4
Compound 1: potassium, K, InChI=1S/K
Compound 2: hydrogen, H2, InChI=1S/H2/h1H
Compound 3: graphite, C
Compound 4: oxygen, O2, InChI=1S/O2/c1-2
Compound 5: potassium benzoate, C7H5KO2, InChI=1S/C7H6O2.K/c8-7(9)6-4-2-1-3-5-6;/h1-5H,(H,8,9);/q;+1/p-1

System: potassium benzoate; phases: Crystal
Fixed: Pressure, kPa = 101.325
Property: Molar heat capacity at constant pressure, J/K/mol (Crystal); method: VADIAC:UFactor:4
Temperature, K	Molar heat capacity at constant pressure, J/K/mol	uncertainty
78.05	64.02	0.61
79.77	65.4	0.62
82.44	67.11	0.64
85.05	69.06	0.65
87.58	70.57	0.66
90.05	72.16	0.88
92.46	73.51	0.89
94.82	75.08	0.9
97.13	76.49	0.91
99.4	77.52	0.91
101.6	78.59	0.92
103.8	79.84	0.93
106	81.03	0.93
108.1	82.38	0.94
110.2	83.34	0.94
112.2	84.3	0.95
114.2	85.15	0.95
116.3	86.65	0.96
118.3	87.5	0.97
120.4	88.67	0.97
123.5	90.49	0.98
127.5	92.84	1
131.5	94.64	1.01
135.4	96.31	1.02
139.4	98.35	1.03
143.3	100.4	1
147.2	102.3	1.1
151.1	103.9	1.1
154.9	105.6	1.1
158.6	107.2	1.1
162.3	108.9	1.1
166	110.7	1.1
169.7	112.6	1.1
173.3	114.5	1.1
176.9	115.9	1.1
180.4	117.8	1.1
185.2	119.9	1.2
190.3	122.8	1.2
194.3	124.8	1.2
198.3	127	1.2
202.2	129	1.2
206.2	131.6	1.2
210.2	133.5	1.2
214.1	135.5	1.3
218.1	137.3	1.3
222.1	139.3	1.3
226.1	141	1.3
230.1	142.7	1.3
234	144.9	1.3
237.9	146.3	1.3
243.1	149	1.3
248.2	151.2	1.3
252.2	152.7	1.4
256.1	154.1	1.4
260.1	156.2	1.4
264.1	158.2	1.4
268.1	160.2	1.4
272.1	161.4	1.4
276.1	163.3	1.4
280	165.1	1.4
284	166.4	1.4
287.9	168.1	1.5
291.8	169.9	1.5
295.9	171.5	1.5
299.8	172.8	1.5
303.7	174.3	1.5
307.8	176.1	1.5
311.7	177.6	1.5
315.6	179.5	1.5
319.5	180.7	1.5
323.5	182.2	1.5
327.4	183.7	1.5
331.4	185.4	1.6
335.5	187.1	1.6
339.4	188.7	1.6
343.5	190.7	1.6
346.5	192.2	1.6
349.5	193.4	1.6
353.5	195	1.6
357.5	196.3	1.6
361.4	197.9	1.6
365.3	199.4	1.6
369.2	200.8	1.7
373.3	202.3	1.7
377.4	203.7	1.7
381.4	205.6	1.7
385.4	206.8	1.7
389.4	208.1	1.7
393.4	209.9	1.7
397.3	211.1	1.7

System: potassium benzoate; phases: Crystal
Fixed: Pressure, kPa = 101.325
Property: Molar heat capacity at constant pressure, J/K/mol (Crystal); method: VADIAC:UFactor:4
Temperature, K	Molar heat capacity at constant pressure, J/K/mol	uncertainty
80	66.51	0.63
85	69.25	0.65
90	71.99	0.88
95	74.71	0.9
100	77.41	0.91
105	80.09	0.93
110	82.77	0.94
115	85.42	0.96
120	88.06	0.97
125	90.69	0.99
130	93.3	1
135	95.9	1.02
140	98.48	1.03
145	101	1
150	103.6	1.1
155	106.1	1.1
160	108.6	1.1
165	111.2	1.1
170	113.6	1.1
175	116.1	1.1
180	118.6	1.1
185	121	1.2
190	123.5	1.2
195	125.9	1.2
200	128.3	1.2
205	130.6	1.2
210	133	1.2
215	135.4	1.3
220	137.7	1.3
225	140	1.3
230	142.3	1.3
235	144.6	1.3
240	146.9	1.3
245	149.2	1.3
250	151.4	1.3
255	153.7	1.4
260	155.9	1.4
265	158.1	1.4
270	160.3	1.4
275	162.5	1.4
280	164.6	1.4
285	166.8	1.4
290	168.9	1.5
295	171	1.5
298.15	172.3	1.5
300	173.1	1.5
305	175.2	1.5
310	177.3	1.5
315	179.3	1.5
320	181.4	1.5
325	183.4	1.5
330	185.4	1.6
335	187.4	1.6
340	189.4	1.6
345	191.4	1.6
350	193.3	1.6
355	195.3	1.6
360	197.2	1.6
365	199.1	1.6
370	201	1.7
375	202.9	1.7
380	204.8	1.7
385	206.6	1.7
390	208.4	1.7
395	210.3	1.7

Reaction: 1 potassium benzoate + -1 potassium + -2.5 hydrogen + -7 graphite + -1 oxygen
Property: Molar enthalpy of reaction, kJ/mol
-610.94
