Measured thermophysical data. Speeds of Sound and Isentropic Compressibilities for Binary Mixtures of a Cyclic Diether with a Cyclic Compound at Three Temperatures
Source: Int. J. Thermophys., 2006, 10.1007/s10765-006-0063-0
Compound 1: 1,4-dioxane, C4H8O2, InChI=1S/C4H8O2/c1-2-6-4-3-5-1/h1-4H2, purity 99.9%
Compound 2: cyclopentane, C5H10, InChI=1S/C5H10/c1-2-4-5-3-1/h1-5H2, purity 99%
Compound 3: cyclohexane, C6H12, InChI=1S/C6H12/c1-2-4-6-5-3-1/h1-6H2, purity 99.9%
Compound 4: benzene, C6H6, InChI=1S/C6H6/c1-2-4-6-5-3-1/h1-6H, purity 99.9%
Compound 5: 1,3-dioxolane, C3H6O2, InChI=1S/C3H6O2/c1-2-5-3-4-1/h1-3H2, purity 99%

System: 1,4-dioxane; phases: Liquid
Fixed: Pressure, kPa = 101.325
Property: Speed of sound, m/s (Liquid); method: Sing-around technique in a fixed-path interferometer
Temperature, K	Speed of sound, m/s	uncertainty
283.15	1409.6	2.1
298.15	1343.6	2.1
313.15	1278.8	2.1

System: 1,4-dioxane; phases: Liquid
Fixed: Pressure, kPa = 101.325
Property: Mass density, kg/m3 (Liquid); method: VIBTUB:UFactor:8
Temperature, K	Mass density, kg/m3	uncertainty
283.15	1045.2	0.5
298.15	1027.9	0.4
313.15	1011	0.4

System: cyclopentane; phases: Liquid
Fixed: Pressure, kPa = 101.325
Property: Speed of sound, m/s (Liquid); method: Sing-around technique in a fixed-path interferometer
Temperature, K	Speed of sound, m/s	uncertainty
283.15	1283.5	2.3
298.15	1206.6	2.3
313.15	1129.9	2.3

System: cyclopentane; phases: Liquid
Fixed: Pressure, kPa = 101.325
Property: Mass density, kg/m3 (Liquid); method: VIBTUB:UFactor:8
Temperature, K	Mass density, kg/m3	uncertainty
283.15	754.9	1.5
298.15	739.7	1.5
313.15	724.7	1.6

System: cyclohexane; phases: Liquid
Fixed: Pressure, kPa = 101.325
Property: Speed of sound, m/s (Liquid); method: Sing-around technique in a fixed-path interferometer
Temperature, K	Speed of sound, m/s	uncertainty
283.15	1327.8	2.1
298.15	1254.4	2.1
313.15	1181.1	2.1

System: cyclohexane; phases: Liquid
Fixed: Pressure, kPa = 101.325
Property: Mass density, kg/m3 (Liquid); method: VIBTUB:UFactor:2
Temperature, K	Mass density, kg/m3	uncertainty
283.15	788	0.3
298.15	773.7	0.3
313.15	759.6	0.3

System: benzene; phases: Liquid
Fixed: Pressure, kPa = 101.325
Property: Speed of sound, m/s (Liquid); method: Sing-around technique in a fixed-path interferometer
Temperature, K	Speed of sound, m/s	uncertainty
283.15	1368.7	2.1
298.15	1298.3	2.1
313.15	1229.5	2.1

System: benzene; phases: Liquid
Fixed: Pressure, kPa = 101.325
Property: Mass density, kg/m3 (Liquid); method: VIBTUB:UFactor:2
Temperature, K	Mass density, kg/m3	uncertainty
283.15	889.9	0.2
298.15	873.5	0.2
313.15	857.5	0.2

System: 1,3-dioxolane; phases: Liquid
Fixed: Pressure, kPa = 101.325
Property: Speed of sound, m/s (Liquid); method: Sing-around technique in a fixed-path interferometer
Temperature, K	Speed of sound, m/s	uncertainty
283.15	1406.3	2.3
298.15	1339.9	2.3
313.15	1271.6	2.3

System: 1,3-dioxolane; phases: Liquid
Fixed: Pressure, kPa = 101.325
Property: Mass density, kg/m3 (Liquid); method: VIBTUB:UFactor:8
Temperature, K	Mass density, kg/m3	uncertainty
283.15	1077.1	0.9
298.15	1058.8	0.9
313.15	1040.2	0.8

System: cyclopentane + 1,3-dioxolane; phases: Liquid
Fixed: Pressure, kPa = 101
Property: Speed of sound, m/s (Liquid); method: Sing-around technique in a fixed-path interferometer
Temperature, K	Mole fraction of 1,3-dioxolane	Speed of sound, m/s	uncertainty
283.15	0.101	1277.3	2.3
283.15	0.2019	1275.8	2.3
283.15	0.3024	1278.6	2.3
283.15	0.4023	1285	2.3
283.15	0.5028	1295.3	2.3
283.15	0.6	1307.9	2.3
283.15	0.6995	1325.7	2.3
283.15	0.796	1347.3	2.3
283.15	0.8999	1375.7	2.3
298.15	0.0998	1201.4	2.3
298.15	0.1993	1200.8	2.3
298.15	0.3005	1204.5	2.3
298.15	0.4041	1212	2.3
298.15	0.5024	1222.7	2.3
298.15	0.6002	1236.4	2.3
298.15	0.7004	1255.5	2.3
298.15	0.7988	1278.8	2.3
298.15	0.8992	1307.4	2.3
313.15	0.1028	1125.3	2.3
313.15	0.2032	1125.9	2.3
313.15	0.3014	1130.2	2.3
313.15	0.403	1138.5	2.3
313.15	0.5008	1150	2.3
313.15	0.6008	1165.5	2.3
313.15	0.6991	1184.8	2.3
313.15	0.7991	1209	2.3
313.15	0.8987	1237.8	2.3

System: cyclohexane + 1,3-dioxolane; phases: Liquid
Fixed: Pressure, kPa = 101
Property: Speed of sound, m/s (Liquid); method: Sing-around technique in a fixed-path interferometer
Temperature, K	Mole fraction of 1,3-dioxolane	Speed of sound, m/s	uncertainty
283.15	0.1044	1322	2.1
283.15	0.2011	1317.6	2.1
283.15	0.3005	1315.4	2.1
283.15	0.4009	1316	2.1
283.15	0.4998	1319.7	2.2
283.15	0.602	1327.3	2.2
283.15	0.7002	1339	2.2
283.15	0.7989	1355.7	2.3
283.15	0.8989	1377.7	2.3
298.15	0.0998	1245.1	2.1
298.15	0.2014	1240	2.1
298.15	0.3019	1238.7	2.1
298.15	0.4043	1240.5	2.1
298.15	0.4993	1245.3	2.2
298.15	0.6028	1254.2	2.2
298.15	0.6998	1266.9	2.2
298.15	0.8003	1284.9	2.2
298.15	0.8992	1308.9	2.3
313.15	0.1213	1172.5	2.1
313.15	0.2006	1167.6	2.1
313.15	0.2996	1166.6	2.1
313.15	0.3996	1168.8	2.1
313.15	0.5009	1174.2	2.2
313.15	0.6	1183.2	2.2
313.15	0.6979	1196.3	2.2
313.15	0.7987	1215.2	2.2
313.15	0.8991	1240	2.3

System: benzene + 1,3-dioxolane; phases: Liquid
Fixed: Pressure, kPa = 101
Property: Speed of sound, m/s (Liquid); method: Sing-around technique in a fixed-path interferometer
Temperature, K	Mole fraction of 1,3-dioxolane	Speed of sound, m/s	uncertainty
283.15	0.1037	1373.9	2.1
283.15	0.2005	1377.2	2.1
283.15	0.2977	1380.5	2.1
283.15	0.4007	1383.5	2.1
283.15	0.4995	1386.6	2.2
283.15	0.5967	1389.7	2.2
283.15	0.6984	1393.7	2.2
283.15	0.7942	1397.3	2.3
283.15	0.8973	1401.7	2.3
298.15	0.1	1303.1	2.1
298.15	0.2022	1306.8	2.1
298.15	0.3002	1310.1	2.1
298.15	0.4021	1313.6	2.1
298.15	0.4957	1317	2.2
298.15	0.5968	1320.7	2.2
298.15	0.6965	1325.1	2.2
298.15	0.7985	1329.4	2.2
298.15	0.8973	1334.2	2.3
313.15	0.1006	1233.5	2.1
313.15	0.2	1237.2	2.1
313.15	0.2985	1240.9	2.1
313.15	0.4136	1245.1	2.1
313.15	0.4928	1248.1	2.2
313.15	0.5953	1252	2.2
313.15	0.6979	1256.3	2.2
313.15	0.7968	1261.2	2.2
313.15	0.8979	1266.3	2.3

System: 1,4-dioxane + cyclopentane; phases: Liquid
Fixed: Pressure, kPa = 101
Property: Speed of sound, m/s (Liquid); method: Sing-around technique in a fixed-path interferometer
Temperature, K	Mole fraction of 1,4-dioxane	Speed of sound, m/s	uncertainty
283.15	0.0516	1280.7	2.3
283.15	0.095	1279.4	2.3
283.15	0.1944	1280.5	2.2
283.15	0.2987	1286	2.2
283.15	0.3973	1294.2	2.2
283.15	0.499	1305.8	2.2
283.15	0.6003	1320.5	2.1
283.15	0.7063	1339.6	2.1
283.15	0.8072	1361	2.1
283.15	0.9076	1385.1	2.1
283.15	0.9528	1397	2.1
298.15	0.0488	1204.5	2.3
298.15	0.0945	1203.8	2.3
298.15	0.1818	1205.5	2.2
298.15	0.2983	1211.9	2.2
298.15	0.3959	1221.4	2.2
298.15	0.4962	1234.1	2.2
298.15	0.6067	1251.5	2.1
298.15	0.7034	1269.8	2.1
298.15	0.811	1293.3	2.1
298.15	0.9025	1316.4	2.1
298.15	0.9506	1329.6	2.1
313.15	0.0449	1128.5	2.3
313.15	0.094	1128.3	2.3
313.15	0.195	1131.3	2.2
313.15	0.2962	1138.6	2.2
313.15	0.3969	1149.5	2.2
313.15	0.4983	1163.6	2.1
313.15	0.5994	1180.8	2.1
313.15	0.6987	1200.2	2.1
313.15	0.8026	1223.8	2.1
313.15	0.9066	1250.8	2.1
313.15	0.9482	1263	2.1

System: cyclohexane + 1,4-dioxane; phases: Liquid
Fixed: Pressure, kPa = 101
Property: Speed of sound, m/s (Liquid); method: Sing-around technique in a fixed-path interferometer
Temperature, K	Mole fraction of 1,4-dioxane	Speed of sound, m/s	uncertainty
283.15	0.0502	1323.1	2.1
283.15	0.0999	1319.7	2.1
283.15	0.1953	1315.8	2.1
283.15	0.2899	1315.6	2.1
283.15	0.3996	1318.4	2.1
283.15	0.5017	1324.5	2.1
283.15	0.6007	1333.5	2.1
283.15	0.699	1346.1	2.1
283.15	0.7956	1362.2	2.1
283.15	0.8994	1383.9	2.1
283.15	0.9446	1394.9	2.1
298.15	0.0535	1250	2.1
298.15	0.1053	1246.9	2.1
298.15	0.1998	1244.4	2.1
298.15	0.3003	1245	2.1
298.15	0.4026	1248.6	2.1
298.15	0.5006	1255.2	2.1
298.15	0.5971	1264.5	2.1
298.15	0.7028	1278.6	2.1
298.15	0.8089	1296.9	2.1
298.15	0.9038	1318.4	2.1
298.15	0.9485	1330.2	2.1
313.15	0.0497	1177.3	2.1
313.15	0.102	1174.3	2.1
313.15	0.1944	1172.4	2.1
313.15	0.2926	1173.7	2.1
313.15	0.3973	1178.3	2.1
313.15	0.4969	1185.8	2.1
313.15	0.5992	1196.7	2.1
313.15	0.6988	1211	2.1
313.15	0.7966	1229	2.1
313.15	0.8972	1251.3	2.1
313.15	0.9505	1264.9	2.1

System: benzene + 1,4-dioxane; phases: Liquid
Fixed: Pressure, kPa = 101
Property: Speed of sound, m/s (Liquid); method: Sing-around technique in a fixed-path interferometer
Temperature, K	Mole fraction of 1,4-dioxane	Speed of sound, m/s	uncertainty
283.15	0.0521	1370.8	2.1
283.15	0.0942	1372.6	2.1
283.15	0.1987	1376.5	2.1
283.15	0.2956	1380.2	2.1
283.15	0.3936	1383.8	2.1
283.15	0.4947	1387.4	2.1
283.15	0.5964	1391.1	2.1
283.15	0.6956	1395.1	2.1
283.15	0.7963	1399.3	2.1
283.15	0.8949	1404.1	2.1
283.15	0.9526	1407.1	2.1
298.15	0.0516	1300.8	2.1
298.15	0.0888	1302.4	2.1
298.15	0.1966	1307.3	2.1
298.15	0.316	1312.2	2.1
298.15	0.4145	1316.3	2.1
298.15	0.5004	1320	2.1
298.15	0.5975	1324.1	2.1
298.15	0.6932	1328.4	2.1
298.15	0.7962	1333.1	2.1
298.15	0.8938	1338	2.1
298.15	0.9535	1341.1	2.1
313.15	0.0568	1232.1	2.1
313.15	0.0913	1233.6	2.1
313.15	0.2021	1239.2	2.1
313.15	0.2963	1243.7	2.1
313.15	0.3981	1248.6	2.1
313.15	0.4975	1253.1	2.1
313.15	0.5981	1257.9	2.1
313.15	0.6972	1262.7	2.1
313.15	0.7941	1267.5	2.1
313.15	0.9034	1273.3	2.1
313.15	0.9424	1275.5	2.1
