Measured thermophysical data. Thermophysical Properties of the Refrigerant Mixtures R417A and R417B from Dynamic Light Scattering (DLS)
Source: Int. J. Thermophys., 2012, 10.1007/s10765-012-1172-6
Compound 1: pentafluoroethane, C2HF5, InChI=1S/C2HF5/c3-1(4)2(5,6)7/h1H, purity 99%
Compound 2: 1,1,1,2-tetrafluoroethane, C2H2F4, InChI=1S/C2H2F4/c3-1-2(4,5)6/h1H2, purity 99%
Compound 3: butane, C4H10, InChI=1S/C4H10/c1-3-4-2/h3-4H2,1-2H3, purity 99%

System: butane + pentafluoroethane + 1,1,1,2-tetrafluoroethane; phases: Liquid, Gas
Property: Kinematic viscosity, m2/s (Liquid); method: surface light scattering
Mass fraction of pentafluoroethane	Mass fraction of 1,1,1,2-tetrafluoroethane	Temperature, K	Kinematic viscosity, m2/s	uncertainty
0.46	0.507	253.15	2.276e-07	1.37e-08
0.46	0.507	263.15	2.054e-07	1.24e-08
0.46	0.507	273.15	1.863e-07	1.12e-08
0.46	0.507	283.15	1.675e-07	1.01e-08
0.46	0.507	293.15	1.523e-07	9.2e-09
0.46	0.507	303.15	1.378e-07	8.3e-09
0.46	0.507	313.15	1.241e-07	7.5e-09
0.46	0.507	323.15	1.114e-07	6.7e-09
0.46	0.507	333.15	1.017e-07	6.1e-09
0.46	0.507	343.15	8.92e-08	5.4e-09
0.46	0.507	348.15	8.13e-08	4.9e-09
0.46	0.507	353.15	7.55e-08	4.6e-09
0.783	0.192	253.15	2.079e-07	1.25e-08
0.783	0.192	263.15	1.866e-07	1.12e-08
0.783	0.192	273.15	1.67e-07	1.01e-08
0.783	0.192	283.15	1.481e-07	8.9e-09
0.783	0.192	293.15	1.335e-07	8.1e-09
0.783	0.192	303.15	1.206e-07	7.3e-09
0.783	0.192	313.15	1.093e-07	6.6e-09
0.783	0.192	323.15	9.64e-08	5.8e-09
0.783	0.192	333.15	8.35e-08	5e-09
0.783	0.192	343.15	6.79e-08	4.1e-09

System: butane + pentafluoroethane + 1,1,1,2-tetrafluoroethane; phases: Liquid, Gas
Property: Thermal diffusivity, m2/s (Liquid); method: Dynamic Light Scattering
Mass fraction of pentafluoroethane	Mass fraction of 1,1,1,2-tetrafluoroethane	Temperature, K	Thermal diffusivity, m2/s	uncertainty
0.46	0.507	283.08	4.43e-08	2.7e-09
0.46	0.507	293.08	4.18e-08	2.5e-09
0.46	0.507	303.07	3.92e-08	2.4e-09
0.46	0.507	313.06	3.63e-08	2.2e-09
0.46	0.507	323.05	3.31e-08	2e-09
0.46	0.507	333.02	2.95e-08	1.8e-09
0.46	0.507	338.01	2.69e-08	1.6e-09
0.46	0.507	343.01	2.37e-08	1.4e-09
0.46	0.507	348	1.95e-08	1.2e-09
0.46	0.507	352.99	1.19e-08	7e-10
0.46	0.507	355.79	4.91e-09	3e-10
0.46	0.507	356.9	1.34e-09	1e-10
0.783	0.192	283.01	4.01e-08	2.4e-09
0.783	0.192	293	3.82e-08	2.3e-09
0.783	0.192	303.01	3.62e-08	2.2e-09
0.783	0.192	312.79	3.27e-08	2e-09
0.783	0.192	323.06	2.9e-08	1.7e-09
0.783	0.192	333.04	2.44e-08	1.5e-09
0.783	0.192	338.04	1.99e-08	1.2e-09
0.783	0.192	339.03	1.85e-08	1.1e-09
0.783	0.192	340.49	1.68e-08	1e-09
0.783	0.192	342.67	1.34e-08	8e-10
0.783	0.192	345.43	7.43e-09	4.5e-10
0.783	0.192	346.33	5.28e-09	3.3e-10
0.783	0.192	347.47	1.12e-09	1e-10

System: butane + pentafluoroethane + 1,1,1,2-tetrafluoroethane; phases: Liquid, Gas
Property: Speed of sound, m/s (Liquid); method: Light diffraction method
Mass fraction of pentafluoroethane	Mass fraction of 1,1,1,2-tetrafluoroethane	Temperature, K	Speed of sound, m/s	uncertainty
0.46	0.507	283.08	493.8	19.8
0.46	0.507	293.08	448.8	18
0.46	0.507	303.07	400.7	16.1
0.46	0.507	313.06	351.7	14.1
0.46	0.507	323.05	301.1	12.1
0.46	0.507	333.02	244.2	9.8
0.46	0.507	338.01	215.9	8.7
0.46	0.507	343.01	186.1	7.5
0.46	0.507	348	153.8	6.3
0.46	0.507	352.99	116.9	4.8
0.46	0.507	355.79	90.68	3.83
0.46	0.507	356.9	79.6	3.41
0.46	0.507	357.29	76.77	3.3
0.46	0.507	357.38	76.83	3.31
0.783	0.192	283.01	446.9	17.9
0.783	0.192	293	399.7	16
0.783	0.192	303.01	350.2	14.1
0.783	0.192	312.79	299.6	12.1
0.783	0.192	323.06	245.1	9.9
0.783	0.192	333.04	186.9	7.6
0.783	0.192	338.04	154.2	6.3
0.783	0.192	339.03	147.7	6.1
0.783	0.192	340.49	137.8	5.7
0.783	0.192	342.67	120.9	5
0.783	0.192	345.43	98.3	4.16
0.783	0.192	346.33	88.27	3.78

System: butane + pentafluoroethane + 1,1,1,2-tetrafluoroethane; phases: Liquid, Gas
Property: Surface tension liquid-gas, N/m (Liquid); method: surface light scattering
Mass fraction of pentafluoroethane	Mass fraction of 1,1,1,2-tetrafluoroethane	Temperature, K	Surface tension liquid-gas, N/m	uncertainty
0.46	0.507	253.15	0.01155	0.00047
0.46	0.507	263.15	0.01024	0.00041
0.46	0.507	273.15	0.0089	0.00036
0.46	0.507	283.15	0.00763	0.00031
0.46	0.507	293.15	0.00638	0.00026
0.46	0.507	303.15	0.00521	0.00021
0.46	0.507	313.15	0.00401	0.00016
0.46	0.507	323.15	0.00291	0.00012
0.46	0.507	333.15	0.00189	8e-05
0.46	0.507	343.15	0.000973	4.6e-05
0.46	0.507	348.15	0.000568	3.2e-05
0.46	0.507	353.15	0.000232	2.5e-05
0.783	0.192	253.15	0.01026	0.00041
0.783	0.192	263.15	0.00891	0.00036
0.783	0.192	273.15	0.00762	0.00031
0.783	0.192	283.15	0.00626	0.00025
0.783	0.192	293.15	0.00503	0.00021
0.783	0.192	303.15	0.00393	0.00016
0.783	0.192	313.15	0.00282	0.00012
0.783	0.192	323.15	0.00181	8e-05
0.783	0.192	333.15	0.000877	4.5e-05
0.783	0.192	343.15	0.000148	2.9e-05
