Measured thermophysical data. Properties of Perfluorobenzene near the Critical Point
Source: Int. J. Thermophys., 2006, 10.1007/s10765-006-0092-8
Compound 1: hexafluorobenzene, C6F6, InChI=1S/C6F6/c7-1-2(8)4(10)6(12)5(11)3(1)9, purity 99.67%

System: hexafluorobenzene; phases: Liquid, Gas
Property: Mass density, kg/m3 (Liquid); method: gamma-ray densimeter
Temperature, K	Mass density, kg/m3	uncertainty
298.79	1605.4	3
323.83	1548.5	3
343.88	1499.4	3
363.85	1450.5	3
383.91	1397.9	3
403.92	1342.1	3
423.93	1281.2	3
443.9	1213.9	3
463.89	1135.3	3
483.9	1037.1	3.1
493.93	974	3.1
503.88	892.3	3.1
508.9	835.8	3.3
513.91	744.6	3.7
513.92	746.3	3.7
515.98	670.3	10.6
516.28	644.8	10.6
516.57	610.1	10.6

System: hexafluorobenzene; phases: Gas, Liquid
Property: Mass density, kg/m3 (Gas); method: gamma-ray densimeter
Temperature, K	Mass density, kg/m3	uncertainty
323.83	2.3	3
383.91	15.5	3
403.92	25.8	3
423.93	40.6	3
443.9	62.7	3
463.89	95.3	3
483.9	146.7	3
493.93	186	3
503.88	243.5	3.1
508.9	287	3.2
513.91	363.5	3.6
513.92	363.5	3.6
515.98	433.7	10.2
516.28	455.8	10.2
516.57	491.5	10.2
