Measured thermophysical data. Experimental Determination of Densities and Isobaric Vapor Liquid Equilibria of Methyl Acetate and Ethyl Acetate with Alcohols (C3 and C4) at 0.3 MPa
Source: Int. J. Thermophys., 2013, 10.1007/s10765-013-1483-2
Compound 1: methyl ethanoate, C3H6O2, InChI=1S/C3H6O2/c1-3(4)5-2/h1-2H3, purity 99%
Compound 2: propan-1-ol, C3H8O, InChI=1S/C3H8O/c1-2-3-4/h4H,2-3H2,1H3, purity 99.8%
Compound 3: butan-1-ol, C4H10O, InChI=1S/C4H10O/c1-2-3-4-5/h5H,2-4H2,1H3, purity 99.9%
Compound 4: ethyl acetate, C4H8O2, InChI=1S/C4H8O2/c1-3-6-4(2)5/h3H2,1-2H3, purity 99.5%

System: methyl ethanoate; phases: Liquid
Property: Mass density, kg/m3 (Liquid); method: Vibrating tube method
Pressure, kPa	Temperature, K	Mass density, kg/m3	uncertainty
101	298.15	927.3	0.3

System: methyl ethanoate; phases: Liquid, Gas
Property: Vapor or sublimation pressure, kPa (Liquid); method: EBULLIO:UFactor:4
Temperature, K	Vapor or sublimation pressure, kPa	uncertainty
365.85	300	6

System: propan-1-ol; phases: Liquid
Property: Mass density, kg/m3 (Liquid); method: Vibrating tube method
Pressure, kPa	Temperature, K	Mass density, kg/m3	uncertainty
101	298.15	799.6	0.2

System: propan-1-ol; phases: Liquid, Gas
Property: Vapor or sublimation pressure, kPa (Liquid); method: EBULLIO:UFactor:4
Temperature, K	Vapor or sublimation pressure, kPa	uncertainty
402.55	300	6

System: butan-1-ol; phases: Liquid, Gas
Property: Normal boiling temperature, K (Liquid); method: Ebulliometric method (Recirculating still)
Normal boiling temperature, K	uncertainty
390.83	0.2

System: butan-1-ol; phases: Liquid
Property: Mass density, kg/m3 (Liquid); method: Vibrating tube method
Temperature, K	Pressure, kPa	Mass density, kg/m3	uncertainty
298.15	101.325	805.9	0.2

System: butan-1-ol; phases: Liquid
Property: Refractive index (Na D-line) (Liquid); method: Standard Abbe refractometry
Temperature, K	Pressure, kPa	Refractive index (Na D-line)	uncertainty
298.15	101.325	1.3973	0.0005

System: butan-1-ol; phases: Liquid, Gas
Property: Vapor or sublimation pressure, kPa (Liquid); method: EBULLIO:UFactor:4
Temperature, K	Vapor or sublimation pressure, kPa	uncertainty
425.39	300	6

System: ethyl acetate; phases: Liquid
Property: Mass density, kg/m3 (Liquid); method: Vibrating tube method
Pressure, kPa	Temperature, K	Mass density, kg/m3	uncertainty
101	298.15	894.6	0.2

System: ethyl acetate; phases: Liquid, Gas
Property: Vapor or sublimation pressure, kPa (Liquid); method: EBULLIO:UFactor:6
Temperature, K	Vapor or sublimation pressure, kPa	uncertainty
387.95	300	7.8

System: propan-1-ol + methyl ethanoate; phases: Liquid
Fixed: Pressure, kPa = 101
Fixed: Temperature, K = 298.15
Property: Mass density, kg/m3 (Liquid); method: Vibrating tube method
Mole fraction of methyl ethanoate	Mass density, kg/m3	uncertainty
0	799.6	0.2
0.0968	811.3	0.2
0.1338	815.7	0.2
0.2033	824.2	0.2
0.2377	828.5	0.2
0.3169	838.3	0.2
0.3696	845	0.2
0.4037	849.3	0.2
0.4542	855.7	0.2
0.5026	861.9	0.3
0.5596	869.2	0.3
0.5975	874	0.3
0.6358	879	0.3
0.7047	888	0.3
0.804	900.9	0.3
0.8537	907.5	0.3
0.9048	914.3	0.3
1	927.3	0.3

System: propan-1-ol + methyl ethanoate; phases: Liquid, Gas
Fixed: Pressure, kPa = 300
Property: Boiling temperature at pressure P, K (Liquid); method: EBULLIO:UFactor:4
Mole fraction of methyl ethanoate	Boiling temperature at pressure P, K	uncertainty
0	402.55	0.4
0.007	402.21	0.46
0.016	401.63	0.47
0.056	398.12	0.51
0.129	392.77	0.47
0.192	389.52	0.45
0.261	385.81	0.44
0.368	381.34	0.43
0.421	379.48	0.42
0.502	377.33	0.41
0.53	376.49	0.41
0.569	375.44	0.41
0.591	375.09	0.41
0.622	374.17	0.41
0.663	373.05	0.41
0.718	372.1	0.41
0.752	371.32	0.41
0.792	370.2	0.41
0.877	368.29	0.41
0.94	367.08	0.41
0.964	366.61	0.41
0.99	365.94	0.41
1	365.85	0.4

System: propan-1-ol + methyl ethanoate; phases: Gas, Liquid
Fixed: Pressure, kPa = 300
Property: Mole fraction of methyl ethanoate (Gas); method: Density calibration data
Mole fraction of methyl ethanoate	Mole fraction of methyl ethanoate	uncertainty
0	0	
0.007	0.019	0.004
0.016	0.043	0.004
0.056	0.172	0.004
0.129	0.346	0.004
0.192	0.443	0.004
0.261	0.544	0.005
0.368	0.655	0.005
0.421	0.696	0.005
0.502	0.745	0.005
0.53	0.763	0.005
0.569	0.786	0.004
0.591	0.794	0.004
0.622	0.816	0.004
0.663	0.841	0.004
0.718	0.863	0.004
0.752	0.879	0.004
0.792	0.891	0.004
0.877	0.928	0.004
0.94	0.963	0.004
0.964	0.977	0.004
0.99	0.993	0.004
1	1	

System: butan-1-ol + methyl ethanoate; phases: Liquid
Fixed: Pressure, kPa = 101
Fixed: Temperature, K = 298.15
Property: Mass density, kg/m3 (Liquid); method: Vibrating tube method
Mole fraction of methyl ethanoate	Mass density, kg/m3	uncertainty
0	805.9	0.2
0.0366	809.2	0.2
0.0844	813.5	0.2
0.1717	821.9	0.2
0.2879	833.8	0.2
0.3366	839.1	0.2
0.405	846.7	0.2
0.5269	861	0.2
0.6518	876.7	0.3
0.713	884.8	0.3
0.8445	903.3	0.3
0.9037	912.2	0.3
0.9559	920.2	0.3
1	927.3	0.3

System: butan-1-ol + methyl ethanoate; phases: Liquid, Gas
Fixed: Pressure, kPa = 300
Property: Boiling temperature at pressure P, K (Liquid); method: EBULLIO:UFactor:4
Mole fraction of methyl ethanoate	Boiling temperature at pressure P, K	uncertainty
0	425.39	0.4
0.009	423.84	0.73
0.024	421.67	0.7
0.079	413.74	0.65
0.105	411.44	0.57
0.127	408.88	0.59
0.131	408.33	0.59
0.166	404.72	0.56
0.194	402.05	0.53
0.229	399.25	0.5
0.265	396.68	0.49
0.284	395.32	0.47
0.341	391.87	0.41
0.346	391.74	0.42
0.354	391.49	0.42
0.412	388.11	0.45
0.449	386.35	0.44
0.467	385.38	0.46
0.509	382.87	0.44
0.613	378.61	0.43
0.643	377.66	0.42
0.68	376.56	0.42
0.711	375.68	0.41
0.835	371.17	0.43
0.863	370.14	0.43
0.898	368.79	0.42
0.941	367.45	0.42
0.971	366.58	0.42
0.988	366.14	0.42
0.994	365.88	0.41
1	365.85	0.4

System: butan-1-ol + methyl ethanoate; phases: Gas, Liquid
Fixed: Pressure, kPa = 300
Property: Mole fraction of methyl ethanoate (Gas); method: Density calibration data
Mole fraction of methyl ethanoate	Mole fraction of methyl ethanoate	uncertainty
0	0	
0.009	0.06	0.023
0.024	0.135	0.017
0.079	0.352	0.015
0.105	0.415	0.011
0.127	0.468	0.01
0.131	0.485	0.01
0.166	0.556	0.009
0.194	0.598	0.007
0.229	0.646	0.007
0.265	0.685	0.006
0.284	0.705	0.006
0.341	0.755	0.005
0.346	0.757	0.005
0.354	0.763	0.005
0.412	0.8	0.005
0.449	0.822	0.005
0.467	0.832	0.005
0.509	0.859	0.005
0.613	0.897	0.004
0.643	0.904	0.004
0.68	0.913	0.004
0.711	0.917	0.004
0.835	0.952	0.004
0.863	0.961	0.004
0.898	0.972	0.004
0.941	0.983	0.004
0.971	0.991	0.004
0.988	0.995	0.004
0.994	0.996	0.004
1	1	

System: butan-1-ol + ethyl acetate; phases: Liquid
Fixed: Pressure, kPa = 101
Fixed: Temperature, K = 298.15
Property: Mass density, kg/m3 (Liquid); method: Vibrating tube method
Mole fraction of ethyl acetate	Mass density, kg/m3	uncertainty
0	805.9	0.2
0.0589	810.8	0.2
0.0898	813.4	0.2
0.1537	818.8	0.2
0.181	821.2	0.2
0.2553	827.6	0.2
0.2999	831.5	0.2
0.3496	835.8	0.2
0.3987	840.1	0.2
0.4498	844.6	0.2
0.5037	849.4	0.2
0.5476	853.3	0.2
0.6025	858.2	0.2
0.656	863	0.2
0.6928	866.3	0.2
0.7384	870.4	0.2
0.7995	876	0.2
0.8486	880.4	0.2
0.8901	884.2	0.2
0.9522	890	0.2
1	894.6	0.2

System: butan-1-ol + ethyl acetate; phases: Liquid, Gas
Fixed: Pressure, kPa = 300
Property: Boiling temperature at pressure P, K (Liquid); method: EBULLIO:UFactor:6
Mole fraction of ethyl acetate	Boiling temperature at pressure P, K	uncertainty
0	425.39	0.51
0.039	421.19	0.61
0.104	416.53	0.57
0.149	414.22	0.56
0.21	410.89	0.56
0.235	409.3	0.57
0.341	404.23	0.55
0.372	402.96	0.54
0.452	399.72	0.54
0.477	398.78	0.53
0.556	396.66	0.53
0.618	394.79	0.52
0.735	392.47	0.52
0.778	392.11	0.52
0.826	391.26	0.52
0.858	390.67	0.52
0.896	389.86	0.52
0.944	388.81	0.52
0.966	388.22	0.52
0.983	388.06	0.52
0.989	388.02	0.52
1	387.95	0.52

System: butan-1-ol + ethyl acetate; phases: Gas, Liquid
Fixed: Pressure, kPa = 300
Property: Mole fraction of ethyl acetate (Gas); method: Density calibration data
Mole fraction of ethyl acetate	Mole fraction of ethyl acetate	uncertainty
0	0	
0.039	0.157	0.012
0.104	0.299	0.009
0.149	0.372	0.008
0.21	0.473	0.008
0.235	0.517	0.008
0.341	0.645	0.006
0.372	0.674	0.006
0.452	0.744	0.005
0.477	0.763	0.005
0.556	0.806	0.005
0.618	0.844	0.005
0.735	0.893	0.004
0.778	0.9	0.004
0.826	0.916	0.004
0.858	0.927	0.004
0.896	0.94	0.004
0.944	0.967	0.005
0.966	0.981	0.005
0.983	0.993	0.005
0.989	0.996	0.004
1	1	
