Measured thermophysical data. Measurement of the (p, rho, T) Properties for Pure Hydrocarbons at Temperatures up to 600 K and Pressures up to 200 MPa
Source: Int. J. Thermophys., 2014, 10.1007/s10765-012-1383-x
Compound 1: butane, C4H10, InChI=1S/C4H10/c1-3-4-2/h3-4H2,1-2H3, purity 99.97%
Compound 2: 2-methylpropane, C4H10, InChI=1S/C4H10/c1-4(2)3/h4H,1-3H3, purity 99.99%
Compound 3: propane, C3H8, InChI=1S/C3H8/c1-3-2/h3H2,1-2H3, purity 99.99%

System: butane; phases: Fluid (supercritical or subcritical phases)
Property: Mass density, kg/m3 (Fluid (supercritical or subcritical phases)); method: Bellows volumetry
Temperature, K	Pressure, kPa	Mass density, kg/m3	uncertainty
360	200000	676.57	0.76
360	180000	668.57	0.76
360	160000	659.24	0.76
360	140000	649.66	0.76
360	120000	638.57	0.76
360	100000	626.29	0.76
360	90000	619.58	0.88
360	80000	612.02	0.88
360	70000	604.19	0.88
360	60000	595.41	0.88
360	50000	585.47	0.88
400	200000	658.6	0.76
400	180000	649.69	0.76
400	160000	639.75	0.76
400	140000	629.05	0.76
400	120000	617	0.76
400	100000	603.28	0.76
400	90000	595.58	0.88
400	80000	587.28	0.88
400	70000	578.11	0.88
400	60000	567.8	0.88
400	50000	556.11	0.88
440	200000	641.85	2.94
440	180000	632.12	2.94
440	160000	621.49	2.94
440	140000	609.84	2.94
440	120000	596.67	2.94
440	100000	581.43	2.94
440	90000	572.93	0.76
440	80000	563.51	0.76
440	70000	552.99	0.76
440	60000	541.19	0.76
440	50000	527.49	0.76
500	200000	617.68	2.94
500	180000	607.21	2.94
500	160000	595.57	2.94
500	140000	582.51	2.94
500	120000	567.64	2.94
500	100000	550.18	2.94
500	90000	540.26	0.76
500	80000	529.24	0.76
500	70000	517.01	0.76
500	60000	502.86	0.76
500	50000	485.76	0.76
550	200000	599.35	2.94
550	180000	588.11	2.94
550	160000	575.61	2.94
550	140000	561.8	2.94
550	120000	545.49	2.94
550	100000	526.47	2.94
550	90000	515.43	0.76
550	80000	503.05	0.76
550	70000	489.04	0.76
550	60000	472.65	0.76
550	50000	452.74	0.76
600	200000	582.23	2.94
600	180000	570.23	2.94
600	160000	556.81	2.94
600	140000	541.56	2.94
600	120000	524.18	2.94
600	100000	503.41	2.94
600	90000	491.53	0.76
600	80000	477.92	0.76
600	70000	462.25	0.76
600	60000	444.04	0.76
600	50000	421.67	0.76

System: 2-methylpropane; phases: Fluid (supercritical or subcritical phases)
Property: Mass density, kg/m3 (Fluid (supercritical or subcritical phases)); method: Bellows volumetry
Temperature, K	Pressure, kPa	Mass density, kg/m3	uncertainty
360	200000	663.47	0.76
360	180000	655.03	0.76
360	160000	645.68	0.76
360	140000	635.51	0.76
360	120000	624.36	0.76
360	100000	611.74	0.76
360	90000	604.5	0.88
360	80000	597.04	0.88
360	70000	588.53	0.88
360	60000	579.25	0.88
360	50000	568.86	0.76
400	200000	646.22	0.76
400	180000	637.21	0.76
400	160000	627.09	0.76
400	140000	615.95	0.76
400	120000	603.57	0.76
400	100000	589.43	0.76
400	90000	581.56	0.88
400	80000	572.73	0.88
400	70000	563.06	0.88
400	60000	552.31	0.88
400	50000	539.91	0.88
440	200000	631.03	2.94
440	180000	621.17	2.94
440	160000	610.19	2.94
440	140000	598.12	2.94
440	120000	584.57	2.94
440	100000	568.96	2.94
440	90000	559.97	0.76
440	80000	550.28	0.76
440	70000	539.33	0.76
440	60000	526.93	0.76
440	50000	512.43	0.76
500	200000	607.94	2.94
500	180000	597.32	2.94
500	160000	585.63	2.94
500	140000	572.25	2.94
500	120000	557	2.94
500	100000	539.24	2.94
500	90000	529.04	0.76
500	80000	517.77	0.76
500	70000	504.87	0.76
500	60000	489.95	0.76
500	50000	472.16	0.76
550	200000	590.74	2.94
550	180000	579.21	2.94
550	160000	566.41	2.94
550	140000	551.94	2.94
550	120000	535.44	2.94
550	100000	515.83	2.94
550	90000	504.6	0.76
550	80000	492.04	0.76
550	70000	477.5	0.76
550	60000	460.74	0.76
550	50000	440.41	0.76
600	200000	573.91	2.94
600	180000	561.73	2.94
600	160000	548.14	2.94
600	140000	532.7	2.94
600	120000	515.09	2.94
600	100000	494.03	2.94
600	90000	481.73	0.76
600	80000	467.84	0.76
600	70000	451.97	0.76
600	60000	433.26	0.76
600	50000	410.52	0.76

System: propane; phases: Fluid (supercritical or subcritical phases)
Property: Mass density, kg/m3 (Fluid (supercritical or subcritical phases)); method: Bellows volumetry
Temperature, K	Pressure, kPa	Mass density, kg/m3	uncertainty
360	200000	624.04	0.76
360	180000	614.83	0.76
360	160000	605.2	0.76
360	140000	594.1	0.76
360	120000	582.46	0.76
360	100000	568.67	0.76
360	90000	560.92	0.88
360	80000	552.56	0.88
360	70000	543.15	0.88
360	60000	532.63	0.88
360	50000	520.66	0.88
400	200000	605.48	0.76
400	180000	595.54	0.76
400	160000	584.9	0.76
400	140000	573.12	0.76
400	120000	559.78	0.76
400	100000	544.28	0.76
400	90000	535.66	0.88
400	80000	525.98	0.88
400	70000	515.19	0.88
400	60000	503.01	0.88
400	50000	488.73	0.88
440	200000	587.69	2.94
440	180000	577.17	2.94
440	160000	565.72	2.94
440	140000	552.91	2.94
440	120000	538.35	2.94
440	100000	521.48	2.94
440	90000	511.84	0.76
440	80000	500.95	0.76
440	70000	488.72	0.76
440	60000	474.47	0.76
440	50000	457.63	0.76
500	200000	563.13	2.94
500	180000	551.84	2.94
500	160000	539.2	2.94
500	140000	524.91	2.94
500	120000	508.54	2.94
500	100000	489.12	2.94
500	90000	477.92	0.76
500	80000	465.53	0.76
500	70000	450.94	0.76
500	60000	434.04	0.76
500	50000	413.41	0.76
550	200000	544.69	2.94
550	180000	532.53	2.94
550	160000	518.92	2.94
550	140000	503.64	2.94
550	120000	485.88	2.94
550	100000	464.72	2.94
550	90000	452.84	0.76
550	80000	438.76	0.76
550	70000	422.59	0.76
550	60000	403.51	0.76
550	50000	380.04	0.76
600	200000	527.68	2.94
600	180000	514.78	2.94
600	160000	500.33	2.94
600	140000	484.26	2.94
600	120000	465.07	2.94
600	100000	442.26	2.94
600	90000	428.88	0.76
600	80000	413.71	0.76
600	70000	396.1	0.76
600	60000	375.39	0.76
600	50000	349.68	0.76
