Measured thermophysical data. Measurement and Correlation of Surface Tension for Single Aqueous Electrolyte Solutions
Source: Int. J. Thermophys., 2010, 10.1007/s10765-010-0725-9
Compound 1: water, H2O, InChI=1S/H2O/h1H2, purity 99.9%
Compound 2: potassium chloride, ClK, InChI=1S/ClH.K/h1H;/q;+1/p-1, purity 99%
Compound 3: sodium chloride, ClNa, InChI=1S/ClH.Na/h1H;/q;+1/p-1, purity 99%
Compound 4: calcium chloride, CaCl2, InChI=1S/Ca.2ClH/h;2*1H/q+2;;/p-2, purity 99%
Compound 5: sodium sulfate, Na2O4S, InChI=1S/2Na.H2O4S/c;;1-5(2,3)4/h;;(H2,1,2,3,4)/q2*+1;/p-2, purity 99%

System: water; phases: Liquid, Air at 1 atmosphere
Property: Surface tension liquid-gas, N/m (Liquid); method: Pendant drop shape
Temperature, K	Surface tension liquid-gas, N/m	uncertainty
303.15	0.07154	0.00082
313.15	0.06896	0.00079
323.15	0.06783	0.00078
333.15	0.06616	0.00076
343.15	0.0658	0.0008
303.15	0.07158	0.00082
313.15	0.06986	0.0008
323.15	0.06757	0.00078
333.15	0.06639	0.00076
343.15	0.06473	0.00075
303.15	0.07212	0.00082
313.15	0.07064	0.00081
323.15	0.06915	0.00079
333.15	0.06616	0.00076
343.15	0.06539	0.00075

System: potassium chloride + water; phases: Liquid, Air at 1 atmosphere
Property: Surface tension liquid-gas, N/m (Liquid); method: Pendant drop shape
Mass fraction of potassium chloride	Temperature, K	Surface tension liquid-gas, N/m	uncertainty
0.1	303.15	0.07158	0.00104
0.1	313.15	0.06986	0.00101
0.1	323.15	0.06757	0.00098
0.1	333.15	0.06639	0.00096
0.14	303.15	0.07212	0.00105
0.14	313.15	0.07064	0.00103
0.14	323.15	0.06915	0.00101
0.14	333.15	0.06616	0.00096
0.18	303.15	0.07678	0.00111
0.18	313.15	0.07523	0.00109
0.18	323.15	0.07465	0.00108
0.18	333.15	0.07144	0.00104

System: sodium chloride + water; phases: Liquid, Air at 1 atmosphere
Property: Surface tension liquid-gas, N/m (Liquid); method: Pendant drop shape
Mass fraction of sodium chloride	Temperature, K	Surface tension liquid-gas, N/m	uncertainty
0.04	303.15	0.07144	0.00124
0.04	313.15	0.07066	0.00123
0.04	323.15	0.06825	0.00119
0.04	333.15	0.06731	0.00117
0.1	303.15	0.07342	0.00128
0.1	313.15	0.07181	0.00125
0.1	323.15	0.07097	0.00124
0.1	333.15	0.06974	0.00122
0.14	303.15	0.07609	0.00132
0.14	313.15	0.0746	0.0013
0.14	323.15	0.07247	0.00126
0.14	333.15	0.07183	0.00125
0.18	303.15	0.07704	0.00134
0.18	313.15	0.07473	0.0013
0.18	323.15	0.07338	0.00128
0.18	333.15	0.07144	0.00125

System: water + calcium chloride; phases: Liquid, Air at 1 atmosphere
Property: Surface tension liquid-gas, N/m (Liquid); method: Pendant drop shape
Mass fraction of calcium chloride	Temperature, K	Surface tension liquid-gas, N/m	uncertainty
0.04	303.15	0.07274	0.0009
0.04	313.15	0.07084	0.00088
0.04	323.15	0.06962	0.00087
0.04	333.15	0.06762	0.00084
0.1	303.15	0.07459	0.00093
0.1	313.15	0.07256	0.0009
0.1	323.15	0.07038	0.00088
0.1	333.15	0.06856	0.00085
0.14	303.15	0.07608	0.00094
0.14	313.15	0.07365	0.00092
0.14	323.15	0.07152	0.00089
0.14	333.15	0.07063	0.00088
0.18	303.15	0.07753	0.00096
0.18	313.15	0.07489	0.00093
0.18	323.15	0.07325	0.00091
0.18	333.15	0.07187	0.0009

System: water + sodium sulfate; phases: Liquid, Air at 1 atmosphere
Property: Surface tension liquid-gas, N/m (Liquid); method: Pendant drop shape
Mass fraction of sodium sulfate	Temperature, K	Surface tension liquid-gas, N/m	uncertainty
0.04	303.15	0.07153	0.0008
0.04	313.15	0.0707	0.0008
0.04	323.15	0.0688	0.00078
0.04	333.15	0.06727	0.00076
0.1	303.15	0.07356	0.00083
0.1	313.15	0.07188	0.00081
0.1	323.15	0.0705	0.00079
0.1	333.15	0.06911	0.00078
0.14	303.15	0.07402	0.00083
0.14	313.15	0.07282	0.00082
0.14	323.15	0.07165	0.00081
0.14	333.15	0.06993	0.00079
0.18	303.15	0.07628	0.00086
0.18	313.15	0.07497	0.00084
0.18	323.15	0.07322	0.00083
0.18	333.15	0.0714	0.00081
