Measured thermophysical data. Temperature and Pressure Dependences of Thermophysical Properties of Some Ethylene Glycol Dimethyl Ethers from Ultrasonic Measurements
Source: Int. J. Thermophys., 2006, 10.1007/s10765-006-0110-x
Compound 1: 1,2-dimethoxyethane, C4H10O2, InChI=1S/C4H10O2/c1-5-3-4-6-2/h3-4H2,1-2H3
Compound 2: 2,5,8-trioxanonane, C6H14O3, InChI=1S/C6H14O3/c1-7-3-5-9-6-4-8-2/h3-6H2,1-2H3

System: 1,2-dimethoxyethane; phases: Liquid
Property: Speed of sound, m/s (Liquid); method: Pulse-echo method
Temperature, K	Pressure, kPa	Speed of sound, m/s	uncertainty
293.15	100	1188.5	4.8
293.15	10000	1242	5
293.15	20000	1292.4	5.2
293.15	30000	1336.4	5.4
293.15	40000	1378.8	5.6
293.15	50000	1418.2	5.7
293.15	60000	1455.6	5.9
293.15	70000	1490.4	6
293.15	80000	1523.9	6.1
293.15	90000	1555.7	6.3
293.15	100000	1586.1	6.4
303.15	100	1144.8	4.6
303.15	10000	1201.1	4.8
303.15	20000	1252.2	5
303.15	30000	1299.6	5.2
303.15	40000	1343.2	5.4
303.15	50000	1384.1	5.6
303.15	60000	1422.5	5.7
303.15	70000	1458	5.9
303.15	80000	1492.6	6
303.15	90000	1525.7	6.1
303.15	100000	1557.2	6.3
313.15	100	1101.9	4.4
313.15	10000	1161.1	4.7
313.15	20000	1215.2	4.9
313.15	30000	1263.9	5.1
313.15	40000	1309.2	5.3
313.15	50000	1350.7	5.4
313.15	60000	1390.5	5.6
313.15	70000	1428.3	5.8
313.15	80000	1463.3	5.9
313.15	90000	1497	6
313.15	100000	1528.8	6.2
323.15	100	1059.4	4.3
323.15	10000	1122.4	4.5
323.15	20000	1178.7	4.8
323.15	30000	1229.3	5
323.15	40000	1275.9	5.1
323.15	50000	1319.6	5.3
323.15	60000	1361.5	5.5
323.15	70000	1398.6	5.6
323.15	80000	1434.7	5.8
323.15	90000	1468.9	5.9
323.15	100000	1501.5	6
333.15	100	1016.5	4.1
333.15	10000	1083.1	4.4
333.15	20000	1142.7	4.6
333.15	30000	1195.2	4.8
333.15	40000	1243.6	5
333.15	50000	1288.4	5.2
333.15	60000	1330.1	5.4
333.15	70000	1369.3	5.5
333.15	80000	1406.4	5.7
333.15	90000	1441.3	5.8
333.15	100000	1474.8	5.9
343.15	100	974.9	3.9
343.15	10000	1044.7	4.2
343.15	20000	1107	4.5
343.15	30000	1161.4	4.7
343.15	40000	1211.6	4.9
343.15	50000	1257.6	5.1
343.15	60000	1300.5	5.2
343.15	70000	1340.5	5.4
343.15	80000	1378.6	5.6
343.15	90000	1414.5	5.7
343.15	100000	1448.7	5.8
353.15	100	932.8	3.8
353.15	10000	1005.8	4.1
353.15	20000	1070	4.3
353.15	30000	1127.3	4.5
353.15	40000	1178.9	4.8
353.15	50000	1226.3	4.9
353.15	60000	1270.4	5.1
353.15	70000	1311.3	5.3
353.15	80000	1350.2	5.4
353.15	90000	1387	5.6
353.15	100000	1421.7	5.7

System: 2,5,8-trioxanonane; phases: Liquid
Property: Speed of sound, m/s (Liquid); method: Pulse-echo method
Temperature, K	Pressure, kPa	Speed of sound, m/s	uncertainty
293.15	100	1298.9	5.3
293.15	10000	1344.9	5.4
293.15	20000	1386.5	5.6
293.15	30000	1426.6	5.8
293.15	40000	1463.9	5.9
293.15	50000	1499.2	6.1
293.15	60000	1532.5	6.2
293.15	70000	1565.1	6.3
293.15	80000	1595.5	6.4
293.15	90000	1624.9	6.6
293.15	100000	1653.4	6.7
303.15	100	1259.3	5.1
303.15	10000	1306.7	5.3
303.15	20000	1350.6	5.5
303.15	30000	1392	5.6
303.15	40000	1430.4	5.8
303.15	50000	1466.9	5.9
303.15	60000	1501.5	6.1
303.15	70000	1534.3	6.2
303.15	80000	1565.8	6.3
303.15	90000	1595.9	6.4
303.15	100000	1625.1	6.6
313.15	100	1219.9	4.9
313.15	10000	1269.5	5.1
313.15	20000	1315.4	5.3
313.15	30000	1357.6	5.5
313.15	40000	1397.8	5.7
313.15	50000	1435.3	5.8
313.15	60000	1470.5	5.9
313.15	70000	1504.4	6.1
313.15	80000	1536.7	6.2
313.15	90000	1567.6	6.3
313.15	100000	1597	6.4
323.15	100	1180.9	4.8
323.15	10000	1232.5	5
323.15	20000	1280.2	5.2
323.15	30000	1324.4	5.4
323.15	40000	1365.5	5.5
323.15	50000	1404	5.7
323.15	60000	1440.6	5.8
323.15	70000	1475.2	6
323.15	80000	1508.2	6.1
323.15	90000	1539.8	6.2
323.15	100000	1569.9	6.3
333.15	100	1142.4	4.6
333.15	10000	1196.4	4.8
333.15	20000	1246	5
333.15	30000	1291.4	5.2
333.15	40000	1333.7	5.4
333.15	50000	1373.6	5.6
333.15	60000	1410.9	5.7
333.15	70000	1446.2	5.8
333.15	80000	1480.1	6
333.15	90000	1512.3	6.1
333.15	100000	1543.1	6.2
343.15	100	1104.2	4.5
343.15	10000	1160.8	4.7
343.15	20000	1212	4.9
343.15	30000	1259.5	5.1
343.15	40000	1303.1	5.3
343.15	50000	1343.9	5.4
343.15	60000	1382.1	5.6
343.15	70000	1418.6	5.7
343.15	80000	1452.9	5.9
343.15	90000	1485.9	6
343.15	100000	1517.4	6.1
353.15	100	1066.6	4.3
353.15	10000	1125.7	4.6
353.15	20000	1179.3	4.8
353.15	30000	1228.1	5
353.15	40000	1273.4	5.2
353.15	50000	1314.9	5.3
353.15	60000	1354.4	5.5
353.15	70000	1391.3	5.6
353.15	80000	1426.7	5.8
353.15	90000	1460.4	5.9
353.15	100000	1492.3	6
