Measured thermophysical data. Saturated Liquid Viscosity of Ethyl Fluoride (HFC161) from 233 K to 373 K
Source: Int. J. Thermophys., 2012, 10.1007/s10765-012-1309-7
Compound 1: 2-methylpropane, C4H10, InChI=1S/C4H10/c1-4(2)3/h4H,1-3H3, purity 99.95%
Compound 2: fluoroethane, C2H5F, InChI=1S/C2H5F/c1-2-3/h2H2,1H3, purity 99.95%

System: 2-methylpropane; phases: Liquid, Gas
Property: Kinematic viscosity, m2/s (Liquid); method: Capillary tube (Ostwald; Ubbelohde) method
Temperature, K	Kinematic viscosity, m2/s	uncertainty
285.134	3.099e-07	9.6e-09
290.113	2.947e-07	9.1e-09
295.11	2.867e-07	8.9e-09
300.41	2.722e-07	8.4e-09
303.372	2.674e-07	8.3e-09
309.078	2.549e-07	7.9e-09
313.124	2.46e-07	7.6e-09
315.071	2.417e-07	7.5e-09
318.2	2.377e-07	7.4e-09
320.121	2.348e-07	7.3e-09
323.832	2.252e-07	7e-09
326.11	2.209e-07	6.9e-09
330.112	2.144e-07	6.7e-09
333.143	2.065e-07	6.4e-09
335.121	2.089e-07	6.5e-09
340.119	1.969e-07	6.2e-09
340.15	1.973e-07	6.2e-09
345.147	1.903e-07	5.9e-09

System: fluoroethane; phases: Liquid, Gas
Property: Kinematic viscosity, m2/s (Liquid); method: Capillary tube (Ostwald; Ubbelohde) method
Temperature, K	Kinematic viscosity, m2/s	uncertainty
233.152	2.927e-07	9.1e-09
238.154	2.811e-07	8.7e-09
243.148	2.701e-07	8.4e-09
248.113	2.577e-07	8e-09
253.145	2.465e-07	7.7e-09
258.119	2.371e-07	7.4e-09
263.171	2.277e-07	7.1e-09
268.162	2.173e-07	6.8e-09
273.158	2.088e-07	6.5e-09
278.164	2.008e-07	6.3e-09
283.146	1.921e-07	6e-09
288.133	1.852e-07	5.8e-09
293.182	1.777e-07	5.6e-09
298.152	1.717e-07	5.4e-09
303.121	1.658e-07	5.2e-09
308.11	1.616e-07	5.1e-09
313.15	1.541e-07	4.9e-09
318.147	1.512e-07	4.8e-09
320.159	1.494e-07	4.7e-09
328.16	1.411e-07	4.5e-09
333.151	1.366e-07	4.3e-09
338.15	1.31e-07	4.2e-09
343.132	1.278e-07	4.1e-09
348.154	1.23e-07	3.9e-09
353.174	1.206e-07	3.8e-09
355.161	1.198e-07	3.8e-09
360.161	1.158e-07	3.7e-09
366.08	1.124e-07	3.6e-09
371.362	1.085e-07	3.5e-09
