Measured thermophysical data. Influence of Temperature on Thermodynamic Properties of Methyl t-Butyl Ether (MTBE)+Gasoline Additives
Source: Int. J. Thermophys., 2007, 10.1007/s10765-007-0223-x
Compound 1: 2-methoxy-2-methylpropane, C5H12O, InChI=1S/C5H12O/c1-5(2,3)6-4/h1-4H3
Compound 2: benzene, C6H6, InChI=1S/C6H6/c1-2-4-6-5-3-1/h1-6H
Compound 3: toluene, C7H8, InChI=1S/C7H8/c1-7-5-3-2-4-6-7/h2-6H,1H3
Compound 4: ethylbenzene, C8H10, InChI=1S/C8H10/c1-2-8-6-4-3-5-7-8/h3-7H,2H2,1H3
Compound 5: 2,2,4-trimethylpentane, C8H18, InChI=1S/C8H18/c1-7(2)6-8(3,4)5/h7H,6H2,1-5H3
Compound 6: 2-methylpropan-2-ol, C4H10O, InChI=1S/C4H10O/c1-4(2,3)5/h5H,1-3H3

System: 2-methoxy-2-methylpropane; phases: Liquid
Fixed: Pressure, kPa = 101
Property: Speed of sound, m/s (Liquid); method: Single path-length method
Temperature, K	Speed of sound, m/s	uncertainty
288.15	1083.38	2.11
288.15	1082.11	2.11
290.65	1071.61	2.11
290.65	1070.62	2.11
293.15	1060.05	2.11
293.15	1059.1	2.11
295.65	1048.48	2.11
295.65	1047.83	2.11
298.15	1036.94	2.11
298.15	1036.63	2.11
300.65	1025.42	2.11
300.65	1025.38	2.11
301.65	1024.33	2.2
303.15	1013.9	2.11
303.15	1014.04	2.11
303.15	1012.81	2.14
305.65	1002.41	2.11
305.65	1002.7	2.11
305.65	1001.35	2.11
308.15	990.99	2.11
308.15	991.34	2.11
308.15	989.9	2.11
310.65	979.62	2.11
310.65	980	2.11
310.65	978.47	2.11
313.15	968.16	2.11
313.15	968.63	2.11
313.15	967.03	2.11
315.65	956.8	2.11
315.65	957.31	2.11
315.65	955.73	2.11
318.15	945.54	2.11
318.15	946.03	2.11
318.15	944.34	2.11
320.65	934.24	2.11
320.65	934.76	2.11
320.65	933.01	2.11
323.15	922.97	2.11
323.15	923.46	2.11
323.15	921.93	2.11

System: 2-methoxy-2-methylpropane; phases: Liquid
Fixed: Pressure, kPa = 101
Property: Mass density, kg/m3 (Liquid); method: VIBTUB:UFactor:4
Temperature, K	Mass density, kg/m3	uncertainty
288.15	744.861	0.552
290.65	742.259	0.556
293.15	739.654	0.56
295.65	737.036	0.564
298.15	734.406	0.568
300.65	731.766	0.572
301.65	732.643	0.574
303.15	729.112	0.576
303.15	729.99	0.575
305.65	726.444	0.58
305.65	727.325	0.579
308.15	723.763	0.584
308.15	724.645	0.583
310.65	721.069	0.588
310.65	721.953	0.587
313.15	718.357	0.592
313.15	719.245	0.591
315.65	715.636	0.596
315.65	716.525	0.595
318.15	712.897	0.6
318.15	713.786	0.599
320.65	710.141	0.604
320.65	711.028	0.603
323.15	707.381	0.609
323.15	708.28	0.607

System: benzene; phases: Liquid
Fixed: Pressure, kPa = 101
Property: Speed of sound, m/s (Liquid); method: Single path-length method
Temperature, K	Speed of sound, m/s	uncertainty
288.15	1345.47	2.12
290.65	1333.44	2.12
293.15	1321.59	2.11
295.65	1309.88	2.11
298.15	1298.27	2.11
300.65	1286.68	2.11
303.15	1275.13	2.11
305.65	1263.59	2.11
308.15	1252.08	2.11
310.65	1240.69	2.11
313.15	1229.29	2.11
315.65	1217.94	2.11
318.15	1206.7	2.11
320.65	1195.55	2.11
323.15	1184.63	2.11

System: benzene; phases: Liquid
Fixed: Pressure, kPa = 101
Property: Mass density, kg/m3 (Liquid); method: VIBTUB:UFactor:4
Temperature, K	Mass density, kg/m3	uncertainty
288.15	884.183	0.346
290.65	881.521	0.35
293.15	878.856	0.354
295.65	876.19	0.358
298.15	873.52	0.362
300.65	870.847	0.366
303.15	868.172	0.37
305.65	865.49	0.374
308.15	862.805	0.378
310.65	860.118	0.382
313.15	857.425	0.386
315.65	854.73	0.39
318.15	852.032	0.394
320.65	849.331	0.398
323.15	846.641	0.402

System: toluene; phases: Liquid
Fixed: Pressure, kPa = 101
Property: Speed of sound, m/s (Liquid); method: Single path-length method
Temperature, K	Speed of sound, m/s	uncertainty
288.15	1347.5	2.11
290.65	1336.32	2.11
293.15	1325.34	2.11
295.65	1314.33	2.11
298.15	1303.44	2.11
300.65	1292.64	2.11
303.15	1281.88	2.11
305.65	1271.16	2.11
308.15	1260.49	2.11
310.65	1249.83	2.1
313.15	1239.22	2.1
315.65	1228.62	2.1
318.15	1218.01	2.11
320.65	1207.31	2.11
323.15	1196.6	2.11

System: toluene; phases: Liquid
Fixed: Pressure, kPa = 101
Property: Mass density, kg/m3 (Liquid); method: VIBTUB:UFactor:4
Temperature, K	Mass density, kg/m3	uncertainty
288.15	871.457	0.364
290.65	869.144	0.368
293.15	866.823	0.371
295.65	864.5	0.375
298.15	862.173	0.378
300.65	859.845	0.382
303.15	857.513	0.385
305.65	855.175	0.389
308.15	852.838	0.392
310.65	850.494	0.396
313.15	848.146	0.399
315.65	845.794	0.403
318.15	843.437	0.406
320.65	841.075	0.41
323.15	838.706	0.413

System: ethylbenzene; phases: Liquid
Fixed: Pressure, kPa = 101
Property: Speed of sound, m/s (Liquid); method: Single path-length method
Temperature, K	Speed of sound, m/s	uncertainty
288.15	1360.73	2.11
290.65	1349.91	2.11
293.15	1339.4	2.1
295.65	1328.86	2.1
298.15	1318.36	2.1
300.65	1307.9	2.1
303.15	1297.48	2.1
305.65	1287.09	2.1
308.15	1276.75	2.1
310.65	1266.54	2.1
313.15	1256.29	2.1
315.65	1246.12	2.1
318.15	1236.06	2.1
320.65	1226.09	2.1
323.15	1216.34	2.1

System: ethylbenzene; phases: Liquid
Fixed: Pressure, kPa = 101
Property: Mass density, kg/m3 (Liquid); method: VIBTUB:UFactor:4
Temperature, K	Mass density, kg/m3	uncertainty
288.15	871.245	0.364
290.65	869.052	0.368
293.15	866.856	0.371
295.65	864.66	0.374
298.15	862.459	0.378
300.65	860.256	0.381
303.15	858.047	0.384
305.65	855.837	0.387
308.15	853.622	0.391
310.65	851.407	0.394
313.15	849.186	0.397
315.65	846.964	0.401
318.15	844.741	0.404
320.65	842.518	0.407
323.15	840.306	0.411

System: 2,2,4-trimethylpentane; phases: Liquid
Fixed: Pressure, kPa = 101
Property: Speed of sound, m/s (Liquid); method: Single path-length method
Temperature, K	Speed of sound, m/s	uncertainty
288.15	1124.31	2.1
290.65	1113.83	2.1
293.15	1103.3	2.1
295.65	1092.66	2.1
298.15	1082.2	2.1
300.65	1071.72	2.1
303.15	1061.3	2.1
305.65	1050.89	2.1
308.15	1040.53	2.1
310.65	1030.22	2.1
313.15	1019.94	2.1
315.65	1009.71	2.1
318.15	999.53	2.1
320.65	989.37	2.1
323.15	979.25	2.1

System: 2,2,4-trimethylpentane; phases: Liquid
Fixed: Pressure, kPa = 101
Property: Mass density, kg/m3 (Liquid); method: VIBTUB:UFactor:4
Temperature, K	Mass density, kg/m3	uncertainty
288.15	695.948	0.624
290.65	693.91	0.627
293.15	691.861	0.631
295.65	689.809	0.634
298.15	687.749	0.637
300.65	685.687	0.64
303.15	683.618	0.643
305.65	681.542	0.646
308.15	679.459	0.649
310.65	677.373	0.652
313.15	675.278	0.656
315.65	673.177	0.659
318.15	671.069	0.662
320.65	668.954	0.665
323.15	666.832	0.668

System: 2-methylpropan-2-ol; phases: Liquid
Fixed: Pressure, kPa = 101
Property: Speed of sound, m/s (Liquid); method: Single path-length method
Temperature, K	Speed of sound, m/s	uncertainty
301.65	1108.98	2.17
303.15	1099.02	2.12
305.65	1088.33	2.11
308.15	1077.71	2.1
310.65	1067.22	2.1
313.15	1056.73	2.1
315.65	1046.12	2.1
318.15	1035.66	2.1
320.65	1025.17	2.1
323.15	1014.76	2.1

System: 2-methylpropan-2-ol; phases: Liquid
Fixed: Pressure, kPa = 101
Property: Mass density, kg/m3 (Liquid); method: VIBTUB:UFactor:4
Temperature, K	Mass density, kg/m3	uncertainty
301.65	777.762	0.507
303.15	775.212	0.508
305.65	772.623	0.511
308.15	770.015	0.515
310.65	767.391	0.519
313.15	764.739	0.523
315.65	762.054	0.527
318.15	759.355	0.531
320.65	756.633	0.535
323.15	753.891	0.539

System: benzene + 2-methoxy-2-methylpropane; phases: Liquid
Fixed: Pressure, kPa = 101
Property: Speed of sound, m/s (Liquid); method: Single path-length method
Temperature, K	Mole fraction of 2-methoxy-2-methylpropane	Speed of sound, m/s	uncertainty
288.15	0	1345.47	2.12
288.15	0.052	1328.39	2.14
288.15	0.111	1309.49	2.14
288.15	0.202	1281.74	2.14
288.15	0.303	1252.45	2.14
288.15	0.397	1226.48	2.14
288.15	0.5	1199.09	2.14
288.15	0.596	1174.77	2.13
288.15	0.698	1149.42	2.13
288.15	0.791	1128.2	2.13
288.15	0.902	1103.02	2.13
288.15	0.95	1092.38	2.13
288.15	1	1083.38	2.11
290.65	0	1333.44	2.12
290.65	0.052	1316.51	2.14
290.65	0.111	1297.53	2.14
290.65	0.202	1269.58	2.14
290.65	0.303	1240.48	2.13
290.65	0.397	1214.42	2.13
290.65	0.5	1187.15	2.13
290.65	0.596	1163.01	2.13
290.65	0.698	1137.71	2.13
290.65	0.791	1116.36	2.13
290.65	0.902	1091.23	2.13
290.65	0.95	1080.62	2.12
290.65	1	1071.61	2.11
293.15	0	1321.59	2.11
293.15	0.052	1304.78	2.14
293.15	0.111	1285.89	2.14
293.15	0.202	1257.97	2.13
293.15	0.303	1228.93	2.13
293.15	0.397	1202.89	2.13
293.15	0.5	1175.6	2.13
293.15	0.596	1151.4	2.13
293.15	0.698	1126.17	2.13
293.15	0.791	1104.76	2.13
293.15	0.902	1079.57	2.13
293.15	0.95	1068.97	2.12
293.15	1	1060.05	2.11
295.65	0	1309.88	2.11
295.65	0.052	1293.02	2.14
295.65	0.111	1274.21	2.14
295.65	0.202	1246.34	2.13
295.65	0.303	1217.35	2.13
295.65	0.397	1191.34	2.13
295.65	0.5	1164.04	2.13
295.65	0.596	1139.79	2.13
295.65	0.698	1114.6	2.13
295.65	0.791	1093.14	2.13
295.65	0.902	1067.87	2.13
295.65	0.95	1057.24	2.12
295.65	1	1048.48	2.11
298.15	0	1298.27	2.11
298.15	0.052	1281.34	2.14
298.15	0.111	1262.58	2.14
298.15	0.202	1234.76	2.13
298.15	0.303	1205.79	2.13
298.15	0.397	1179.81	2.13
298.15	0.5	1152.52	2.13
298.15	0.596	1128.18	2.13
298.15	0.698	1103.03	2.13
298.15	0.791	1081.51	2.13
298.15	0.902	1056.19	2.13
298.15	0.95	1045.49	2.12
298.15	1	1036.94	2.11
300.65	0	1286.68	2.11
300.65	0.052	1269.67	2.14
300.65	0.111	1250.99	2.14
300.65	0.202	1223.24	2.13
300.65	0.303	1194.3	2.13
300.65	0.397	1168.34	2.13
300.65	0.5	1141.04	2.13
300.65	0.596	1116.71	2.13
300.65	0.698	1091.5	2.13
300.65	0.791	1069.97	2.12
300.65	0.902	1044.66	2.12
300.65	0.95	1033.85	2.12
300.65	1	1025.42	2.11
303.15	0	1275.13	2.11
303.15	0.052	1258.05	2.14
303.15	0.111	1239.45	2.13
303.15	0.202	1211.73	2.13
303.15	0.303	1182.82	2.13
303.15	0.397	1156.89	2.13
303.15	0.5	1129.61	2.13
303.15	0.596	1105.25	2.13
303.15	0.698	1080.03	2.13
303.15	0.791	1058.49	2.12
303.15	0.902	1033.16	2.12
303.15	0.95	1022.32	2.12
303.15	1	1013.9	2.11
305.65	0	1263.59	2.11
305.65	0.052	1246.47	2.14
305.65	0.111	1227.96	2.13
305.65	0.202	1200.28	2.13
305.65	0.303	1171.41	2.13
305.65	0.397	1145.5	2.13
305.65	0.5	1118.22	2.13
305.65	0.596	1093.82	2.13
305.65	0.698	1068.61	2.12
305.65	0.791	1047.06	2.12
305.65	0.902	1021.69	2.12
305.65	0.95	1010.86	2.12
305.65	1	1002.41	2.11
308.15	0	1252.08	2.11
308.15	0.052	1234.93	2.14
308.15	0.111	1216.51	2.13
308.15	0.202	1188.88	2.13
308.15	0.303	1160.04	2.13
308.15	0.397	1134.12	2.13
308.15	0.5	1106.86	2.13
308.15	0.596	1082.43	2.13
308.15	0.698	1057.23	2.12
308.15	0.791	1035.66	2.12
308.15	0.902	1010.28	2.12
308.15	0.95	999.43	2.12
308.15	1	990.99	2.11
310.65	0	1240.69	2.11
310.65	0.052	1223.5	2.14
310.65	0.111	1205.19	2.13
310.65	0.202	1177.52	2.13
310.65	0.303	1148.77	2.13
310.65	0.397	1122.81	2.13
310.65	0.5	1095.54	2.13
310.65	0.596	1071.17	2.13
310.65	0.698	1045.96	2.12
310.65	0.791	1024.3	2.12
310.65	0.902	998.9	2.12
310.65	0.95	988.05	2.12
310.65	1	979.62	2.11
313.15	0	1229.29	2.11
313.15	0.052	1212.02	2.14
313.15	0.111	1193.81	2.13
313.15	0.202	1166.26	2.13
313.15	0.303	1137.44	2.13
313.15	0.397	1111.53	2.13
313.15	0.5	1084.24	2.13
313.15	0.596	1059.84	2.13
313.15	0.698	1034.6	2.12
313.15	0.791	1012.99	2.12
313.15	0.902	987.61	2.12
313.15	0.95	976.7	2.12
313.15	1	968.16	2.11
315.65	0	1217.94	2.11
315.65	0.052	1200.62	2.13
315.65	0.111	1182.49	2.13
315.65	0.202	1154.96	2.13
315.65	0.303	1126.17	2.13
315.65	0.397	1100.35	2.13
315.65	0.5	1073.05	2.13
315.65	0.596	1048.57	2.12
315.65	0.698	1023.31	2.12
315.65	0.791	1001.69	2.12
315.65	0.902	976.23	2.12
315.65	0.95	965.31	2.11
315.65	1	956.8	2.11
318.15	0	1206.7	2.11
318.15	0.052	1189.38	2.13
318.15	0.111	1171.29	2.13
318.15	0.202	1143.77	2.13
318.15	0.303	1115.03	2.13
318.15	0.397	1089.16	2.13
318.15	0.5	1061.85	2.13
318.15	0.596	1037.37	2.12
318.15	0.698	1012.13	2.12
318.15	0.791	990.48	2.12
318.15	0.902	964.92	2.12
320.65	0	1195.55	2.11
320.65	0.052	1178.42	2.13
320.65	0.111	1160.14	2.13
320.65	0.202	1132.63	2.13
320.65	0.303	1103.9	2.13
320.65	0.397	1078.07	2.13
320.65	0.5	1050.37	2.12
320.65	0.596	1026.21	2.12
320.65	0.698	1000.95	2.12
320.65	0.791	979.25	2.12
320.65	0.902	953.72	2.12
323.15	0	1184.63	2.11
323.15	0.052	1168	2.13
323.15	0.111	1149.19	2.13
323.15	0.202	1121.71	2.12
323.15	0.303	1093	2.12
323.15	0.397	1067.23	2.12
323.15	0.5	1040.03	2.12
323.15	0.596	1015.19	2.12
323.15	0.698	990.11	2.12
323.15	0.791	968.17	2.12
323.15	0.902	942.69	2.12
323.15	0.95	931.73	2.12
323.15	1	922.97	2.11

System: benzene + 2-methoxy-2-methylpropane; phases: Liquid
Fixed: Pressure, kPa = 101
Property: Mass density, kg/m3 (Liquid); method: VIBTUB:UFactor:4
Temperature, K	Mole fraction of 2-methoxy-2-methylpropane	Mass density, kg/m3	uncertainty
288.15	0	884.183	0.346
288.15	0.052	874.712	0.402
288.15	0.111	864.515	0.412
288.15	0.202	849.416	0.429
288.15	0.303	833.719	0.447
288.15	0.397	819.912	0.464
288.15	0.5	805.496	0.482
288.15	0.596	792.712	0.499
288.15	0.698	779.712	0.516
288.15	0.791	768.503	0.53
288.15	0.902	755.682	0.548
288.15	0.95	750.294	0.555
288.15	1	744.861	0.552
290.65	0	881.521	0.35
290.65	0.052	872.067	0.405
290.65	0.111	861.888	0.415
290.65	0.202	846.799	0.432
290.65	0.303	831.129	0.45
290.65	0.397	817.328	0.467
290.65	0.5	802.92	0.486
290.65	0.596	790.137	0.502
290.65	0.698	777.135	0.519
290.65	0.791	765.921	0.534
290.65	0.902	753.094	0.552
290.65	0.95	747.701	0.559
290.65	1	742.259	0.556
293.15	0	878.856	0.354
293.15	0.052	869.419	0.408
293.15	0.111	859.259	0.418
293.15	0.202	844.19	0.436
293.15	0.303	828.533	0.454
293.15	0.397	814.742	0.471
293.15	0.5	800.338	0.489
293.15	0.596	787.557	0.506
293.15	0.698	774.552	0.523
293.15	0.791	763.334	0.538
293.15	0.902	750.497	0.556
293.15	0.95	745.1	0.563
293.15	1	739.654	0.56
295.65	0	876.19	0.358
295.65	0.052	866.766	0.412
295.65	0.111	856.624	0.422
295.65	0.202	841.573	0.439
295.65	0.303	825.932	0.458
295.65	0.397	812.151	0.474
295.65	0.5	797.75	0.493
295.65	0.596	784.966	0.51
295.65	0.698	771.959	0.527
295.65	0.791	760.733	0.542
295.65	0.902	747.886	0.56
295.65	0.95	742.485	0.567
295.65	1	737.036	0.564
298.15	0	873.52	0.362
298.15	0.052	864.111	0.415
298.15	0.111	853.986	0.425
298.15	0.202	838.954	0.443
298.15	0.303	823.323	0.461
298.15	0.397	809.552	0.478
298.15	0.5	795.155	0.497
298.15	0.596	782.366	0.513
298.15	0.698	769.356	0.531
298.15	0.791	758.126	0.545
298.15	0.902	745.267	0.564
298.15	0.95	739.86	0.571
298.15	1	734.406	0.568
300.65	0	870.847	0.366
300.65	0.052	861.451	0.419
300.65	0.111	851.345	0.429
300.65	0.202	836.329	0.446
300.65	0.303	820.71	0.465
300.65	0.397	806.945	0.482
300.65	0.5	792.548	0.501
300.65	0.596	779.76	0.517
300.65	0.698	766.742	0.534
300.65	0.791	755.506	0.549
300.65	0.902	742.638	0.567
300.65	0.95	737.224	0.574
300.65	1	731.766	0.572
303.15	0	868.172	0.37
303.15	0.052	858.785	0.422
303.15	0.111	848.697	0.432
303.15	0.202	833.698	0.45
303.15	0.303	818.089	0.469
303.15	0.397	804.33	0.486
303.15	0.5	789.936	0.504
303.15	0.596	777.144	0.521
303.15	0.698	764.119	0.538
303.15	0.791	752.877	0.553
303.15	0.902	739.994	0.571
303.15	0.95	734.576	0.578
303.15	1	729.112	0.576
305.65	0	865.49	0.374
305.65	0.052	856.117	0.426
305.65	0.111	846.045	0.436
305.65	0.202	831.061	0.454
305.65	0.303	815.461	0.472
305.65	0.397	801.707	0.489
305.65	0.5	787.314	0.508
305.65	0.596	774.518	0.525
305.65	0.698	761.485	0.542
305.65	0.791	750.234	0.557
305.65	0.902	737.34	0.575
305.65	0.95	731.914	0.582
305.65	1	726.444	0.58
308.15	0	862.805	0.378
308.15	0.052	853.44	0.429
308.15	0.111	843.388	0.439
308.15	0.202	828.417	0.457
308.15	0.303	812.827	0.476
308.15	0.397	799.075	0.493
308.15	0.5	784.683	0.512
308.15	0.596	771.88	0.529
308.15	0.698	758.841	0.546
308.15	0.791	747.582	0.561
308.15	0.902	734.673	0.579
308.15	0.95	729.241	0.586
308.15	1	723.763	0.584
310.65	0	860.118	0.382
310.65	0.052	850.759	0.433
310.65	0.111	840.726	0.443
310.65	0.202	825.767	0.461
310.65	0.303	810.187	0.48
310.65	0.397	796.438	0.497
310.65	0.5	782.044	0.516
310.65	0.596	769.234	0.533
310.65	0.698	756.187	0.55
310.65	0.791	744.918	0.565
310.65	0.902	731.995	0.583
310.65	0.95	726.556	0.59
310.65	1	721.069	0.588
313.15	0	857.425	0.386
313.15	0.052	848.07	0.436
313.15	0.111	838.056	0.447
313.15	0.202	823.111	0.465
313.15	0.303	807.533	0.484
313.15	0.397	793.792	0.501
313.15	0.5	779.391	0.52
313.15	0.596	766.575	0.536
313.15	0.698	753.517	0.554
313.15	0.791	742.24	0.569
313.15	0.902	729.301	0.587
313.15	0.95	723.852	0.594
313.15	1	718.357	0.592
315.65	0	854.73	0.39
315.65	0.052	845.378	0.44
315.65	0.111	835.381	0.45
315.65	0.202	820.447	0.468
315.65	0.303	804.877	0.487
315.65	0.397	791.135	0.505
315.65	0.5	776.733	0.523
315.65	0.596	763.908	0.54
315.65	0.698	750.84	0.558
315.65	0.791	739.55	0.573
315.65	0.902	726.593	0.591
315.65	0.95	721.138	0.598
315.65	1	715.636	0.596
318.15	0	852.032	0.394
318.15	0.052	842.684	0.444
318.15	0.111	832.703	0.454
318.15	0.202	817.778	0.472
318.15	0.303	802.213	0.491
318.15	0.397	788.472	0.508
318.15	0.5	774.062	0.527
318.15	0.596	761.226	0.544
318.15	0.698	748.147	0.562
318.15	0.791	736.847	0.577
318.15	0.902	723.87	0.596
320.65	0	849.331	0.398
320.65	0.052	840.006	0.447
320.65	0.111	830.019	0.458
320.65	0.202	815.102	0.476
320.65	0.303	799.541	0.495
320.65	0.397	785.8	0.512
320.65	0.5	771.341	0.531
320.65	0.596	758.536	0.548
320.65	0.698	745.444	0.566
320.65	0.791	734.13	0.581
320.65	0.902	721.133	0.6
323.15	0	846.641	0.402
323.15	0.052	837.364	0.45
323.15	0.111	827.342	0.461
323.15	0.202	812.432	0.479
323.15	0.303	796.876	0.498
323.15	0.397	783.138	0.516
323.15	0.5	768.725	0.535
323.15	0.596	755.841	0.552
323.15	0.698	742.756	0.569
323.15	0.791	731.411	0.585
323.15	0.902	718.4	0.603
323.15	0.95	712.917	0.611
323.15	1	707.381	0.609

System: toluene + 2-methoxy-2-methylpropane; phases: Liquid
Fixed: Pressure, kPa = 101
Property: Speed of sound, m/s (Liquid); method: Single path-length method
Temperature, K	Mole fraction of 2-methoxy-2-methylpropane	Speed of sound, m/s	uncertainty
288.15	0	1347.5	2.11
288.15	0.053	1332.9	2.13
288.15	0.116	1315.92	2.13
288.15	0.199	1295.15	2.12
288.15	0.301	1268.12	2.12
288.15	0.371	1249.47	2.13
288.15	0.463	1225.78	2.12
288.15	0.61	1186.33	2.12
288.15	0.688	1165.98	2.12
288.15	0.797	1137.29	2.12
288.15	0.902	1108.52	2.12
288.15	0.943	1097.53	2.12
288.15	1	1083.38	2.11
290.65	0	1336.32	2.11
290.65	0.053	1321.86	2.13
290.65	0.116	1304.85	2.12
290.65	0.199	1284.23	2.12
290.65	0.301	1257.36	2.12
290.65	0.371	1238.54	2.12
290.65	0.463	1214.99	2.12
290.65	0.61	1175.57	2.12
290.65	0.688	1155.02	2.12
290.65	0.797	1126.57	2.12
290.65	0.902	1098.16	2.12
290.65	0.943	1086.78	2.12
290.65	1	1071.61	2.11
293.15	0	1325.34	2.11
293.15	0.053	1310.91	2.13
293.15	0.116	1293.82	2.12
293.15	0.199	1273.24	2.12
293.15	0.301	1246.41	2.12
293.15	0.371	1227.54	2.12
293.15	0.463	1203.94	2.12
293.15	0.61	1164.65	2.12
293.15	0.688	1143.93	2.13
293.15	0.797	1115.72	2.12
293.15	0.902	1087.37	2.12
293.15	0.943	1075.87	2.13
293.15	1	1060.05	2.11
295.65	0	1314.33	2.11
295.65	0.053	1299.86	2.13
295.65	0.116	1282.76	2.12
295.65	0.199	1262.16	2.12
295.65	0.301	1235.43	2.12
295.65	0.371	1216.47	2.12
295.65	0.463	1192.95	2.12
295.65	0.61	1153.62	2.13
295.65	0.688	1132.78	2.12
295.65	0.797	1104.9	2.12
295.65	0.902	1076.72	2.12
295.65	0.943	1064.76	2.13
295.65	1	1048.48	2.11
298.15	0	1303.44	2.11
298.15	0.053	1288.91	2.12
298.15	0.116	1271.77	2.12
298.15	0.199	1251.18	2.12
298.15	0.301	1224.5	2.12
298.15	0.371	1205.49	2.12
298.15	0.463	1181.85	2.13
298.15	0.61	1142.62	2.12
298.15	0.688	1122	2.12
298.15	0.797	1093.78	2.13
298.15	0.902	1065.7	2.13
298.15	0.943	1053.45	2.13
298.15	1	1036.94	2.11
300.65	0	1292.64	2.11
300.65	0.053	1278.06	2.12
300.65	0.116	1260.83	2.12
300.65	0.199	1240.22	2.12
300.65	0.301	1213.56	2.12
300.65	0.371	1194.52	2.12
300.65	0.463	1170.79	2.12
300.65	0.61	1131.6	2.12
300.65	0.688	1111.37	2.12
300.65	0.797	1082.56	2.13
300.65	0.902	1054.44	2.13
300.65	0.943	1042.06	2.13
300.65	1	1025.42	2.11
303.15	0	1281.88	2.11
303.15	0.053	1267.26	2.12
303.15	0.116	1249.95	2.12
303.15	0.199	1229.31	2.12
303.15	0.301	1202.64	2.12
303.15	0.371	1183.56	2.12
303.15	0.463	1159.75	2.12
303.15	0.61	1120.64	2.12
303.15	0.688	1100.2	2.13
303.15	0.797	1071.36	2.13
303.15	0.902	1043.1	2.13
303.15	0.943	1030.65	2.13
303.15	1	1013.9	2.11
305.65	0	1271.16	2.11
305.65	0.053	1256.52	2.12
305.65	0.116	1239.11	2.12
305.65	0.199	1218.39	2.12
305.65	0.301	1191.74	2.12
305.65	0.371	1172.63	2.12
305.65	0.463	1148.75	2.12
305.65	0.61	1109.72	2.12
305.65	0.688	1089.04	2.13
305.65	0.797	1060.15	2.13
305.65	0.902	1031.72	2.13
305.65	0.943	1019.26	2.13
305.65	1	1002.41	2.11
308.15	0	1260.49	2.11
308.15	0.053	1245.81	2.12
308.15	0.116	1228.31	2.12
308.15	0.199	1207.54	2.12
308.15	0.301	1180.88	2.12
308.15	0.371	1161.75	2.12
308.15	0.463	1137.76	2.12
308.15	0.61	1098.76	2.12
308.15	0.688	1077.93	2.13
308.15	0.797	1048.99	2.13
308.15	0.902	1020.41	2.13
308.15	0.943	1008	2.13
308.15	1	990.99	2.11
310.65	0	1249.83	2.1
310.65	0.053	1235.16	2.12
310.65	0.116	1217.63	2.12
310.65	0.199	1196.72	2.12
310.65	0.301	1170.06	2.12
310.65	0.371	1150.87	2.12
310.65	0.463	1126.82	2.12
310.65	0.61	1087.74	2.12
310.65	0.688	1066.9	2.12
310.65	0.797	1037.86	2.13
310.65	0.902	1009.13	2.13
310.65	0.943	996.73	2.13
310.65	1	979.62	2.11
313.15	0	1239.22	2.1
313.15	0.053	1224.53	2.12
313.15	0.116	1206.97	2.12
313.15	0.199	1186	2.12
313.15	0.301	1159.26	2.12
313.15	0.371	1140.11	2.12
313.15	0.463	1115.92	2.12
313.15	0.61	1076.74	2.12
313.15	0.688	1055.89	2.12
313.15	0.797	1026.77	2.13
313.15	0.902	997.95	2.13
313.15	0.943	985.49	2.13
313.15	1	968.16	2.11
315.65	0	1228.62	2.1
315.65	0.053	1213.95	2.12
315.65	0.116	1196.36	2.12
315.65	0.199	1175.32	2.12
315.65	0.301	1148.5	2.12
315.65	0.371	1129.3	2.12
315.65	0.463	1105.04	2.12
315.65	0.61	1065.76	2.12
315.65	0.688	1044.9	2.13
315.65	0.797	1015.65	2.13
315.65	0.902	986.8	2.13
315.65	0.943	974.25	2.13
315.65	1	956.8	2.11
318.15	0	1218.01	2.11
318.15	0.053	1203.44	2.12
318.15	0.116	1185.76	2.12
318.15	0.199	1164.65	2.12
318.15	0.301	1137.76	2.12
318.15	0.371	1118.51	2.12
318.15	0.463	1094.2	2.12
318.15	0.61	1054.79	2.12
318.15	0.688	1033.84	2.13
318.15	0.797	1004.57	2.13
318.15	0.902	975.59	2.13
318.15	0.943	963	2.13
318.15	1	945.54	2.11
320.65	0	1207.31	2.11
320.65	0.053	1192.91	2.12
320.65	0.116	1175.18	2.12
320.65	0.199	1154.09	2.12
320.65	0.301	1127.01	2.12
320.65	0.371	1107.74	2.12
320.65	0.463	1083.37	2.12
320.65	0.61	1043.82	2.12
320.65	0.688	1022.83	2.12
320.65	0.797	993.5	2.13
320.65	0.902	964.4	2.13
320.65	0.943	951.77	2.13
320.65	1	934.24	2.11
323.15	0	1196.6	2.11
323.15	0.053	1182.39	2.12
323.15	0.116	1164.61	2.12
323.15	0.199	1143.5	2.12
323.15	0.301	1116.42	2.12
323.15	0.371	1097.02	2.12
323.15	0.463	1072.53	2.12
323.15	0.61	1032.94	2.12
323.15	0.688	1011.9	2.12
323.15	0.797	982.48	2.13
323.15	0.902	953.28	2.13
323.15	0.943	940.59	2.13
323.15	1	922.97	2.11

System: toluene + 2-methoxy-2-methylpropane; phases: Liquid
Fixed: Pressure, kPa = 101
Property: Mass density, kg/m3 (Liquid); method: VIBTUB:UFactor:4
Temperature, K	Mole fraction of 2-methoxy-2-methylpropane	Mass density, kg/m3	uncertainty
288.15	0	871.457	0.364
288.15	0.053	864.558	0.396
288.15	0.116	856.488	0.407
288.15	0.199	845.884	0.422
288.15	0.301	832.848	0.44
288.15	0.371	824.068	0.452
288.15	0.463	812.346	0.469
288.15	0.61	793.998	0.495
288.15	0.688	784.329	0.509
288.15	0.797	770.803	0.528
288.15	0.902	757.81	0.547
288.15	0.943	752.561	0.556
288.15	1	744.861	0.552
290.65	0	869.144	0.368
290.65	0.053	862.236	0.399
290.65	0.116	854.153	0.41
290.65	0.199	843.533	0.425
290.65	0.301	830.472	0.444
290.65	0.371	821.675	0.456
290.65	0.463	809.929	0.472
290.65	0.61	791.542	0.499
290.65	0.688	781.848	0.512
290.65	0.797	768.289	0.532
290.65	0.902	755.262	0.551
290.65	0.943	750	0.56
290.65	1	742.259	0.556
293.15	0	866.823	0.371
293.15	0.053	859.905	0.403
293.15	0.116	851.805	0.414
293.15	0.199	841.167	0.429
293.15	0.301	828.083	0.447
293.15	0.371	819.27	0.46
293.15	0.463	807.497	0.476
293.15	0.61	789.068	0.502
293.15	0.688	779.352	0.516
293.15	0.797	765.757	0.536
293.15	0.902	752.693	0.555
293.15	0.943	747.415	0.564
293.15	1	739.654	0.56
295.65	0	864.5	0.375
295.65	0.053	857.569	0.406
295.65	0.116	849.458	0.417
295.65	0.199	838.799	0.432
295.65	0.301	825.688	0.451
295.65	0.371	816.857	0.463
295.65	0.463	805.058	0.48
295.65	0.61	786.587	0.506
295.65	0.688	776.847	0.52
295.65	0.797	763.216	0.54
295.65	0.902	750.116	0.559
295.65	0.943	744.822	0.568
295.65	1	737.036	0.564
298.15	0	862.173	0.378
298.15	0.053	855.229	0.41
298.15	0.116	847.105	0.421
298.15	0.199	836.426	0.436
298.15	0.301	823.289	0.454
298.15	0.371	814.439	0.467
298.15	0.463	802.616	0.483
298.15	0.61	784.1	0.51
298.15	0.688	774.335	0.524
298.15	0.797	760.667	0.543
298.15	0.902	747.528	0.563
298.15	0.943	742.221	0.572
298.15	1	734.406	0.568
300.65	0	859.845	0.382
300.65	0.053	852.886	0.413
300.65	0.116	844.749	0.424
300.65	0.199	834.049	0.439
300.65	0.301	820.886	0.458
300.65	0.371	812.02	0.47
300.65	0.463	800.168	0.487
300.65	0.61	781.607	0.513
300.65	0.688	771.814	0.527
300.65	0.797	758.108	0.547
300.65	0.902	744.931	0.566
300.65	0.943	739.606	0.576
300.65	1	731.766	0.572
303.15	0	857.513	0.385
303.15	0.053	850.544	0.416
303.15	0.116	842.388	0.428
303.15	0.199	831.668	0.443
303.15	0.301	818.477	0.461
303.15	0.371	809.592	0.474
303.15	0.463	797.712	0.491
303.15	0.61	779.104	0.517
303.15	0.688	769.287	0.531
303.15	0.797	755.539	0.551
303.15	0.902	742.321	0.57
303.15	0.943	736.98	0.58
303.15	1	729.112	0.576
305.65	0	855.175	0.389
305.65	0.053	848.195	0.42
305.65	0.116	840.022	0.431
305.65	0.199	829.282	0.446
305.65	0.301	816.062	0.465
305.65	0.371	807.159	0.477
305.65	0.463	795.249	0.494
305.65	0.61	776.592	0.521
305.65	0.688	766.747	0.535
305.65	0.797	752.961	0.555
305.65	0.902	739.7	0.574
305.65	0.943	734.343	0.584
305.65	1	726.444	0.58
308.15	0	852.838	0.392
308.15	0.053	845.842	0.423
308.15	0.116	837.654	0.434
308.15	0.199	826.891	0.45
308.15	0.301	813.64	0.468
308.15	0.371	804.72	0.481
308.15	0.463	792.78	0.498
308.15	0.61	774.07	0.524
308.15	0.688	764.201	0.539
308.15	0.797	750.369	0.559
308.15	0.902	737.069	0.578
308.15	0.943	731.692	0.588
308.15	1	723.763	0.584
310.65	0	850.494	0.396
310.65	0.053	843.486	0.427
310.65	0.116	835.279	0.438
310.65	0.199	824.494	0.453
310.65	0.301	811.214	0.472
310.65	0.371	802.273	0.485
310.65	0.463	790.303	0.501
310.65	0.61	771.541	0.528
310.65	0.688	761.642	0.543
310.65	0.797	747.769	0.563
310.65	0.902	734.423	0.582
310.65	0.943	729.029	0.592
310.65	1	721.069	0.588
313.15	0	848.146	0.399
313.15	0.053	841.124	0.43
313.15	0.116	832.902	0.441
313.15	0.199	822.092	0.457
313.15	0.301	808.78	0.475
313.15	0.371	799.819	0.488
313.15	0.463	787.815	0.505
313.15	0.61	769.004	0.532
313.15	0.688	759.075	0.546
313.15	0.797	745.157	0.567
313.15	0.902	731.765	0.586
313.15	0.943	726.353	0.596
313.15	1	718.357	0.592
315.65	0	845.794	0.403
315.65	0.053	838.757	0.434
315.65	0.116	830.517	0.445
315.65	0.199	819.682	0.46
315.65	0.301	806.341	0.479
315.65	0.371	797.359	0.492
315.65	0.463	785.32	0.509
315.65	0.61	766.457	0.536
315.65	0.688	756.499	0.55
315.65	0.797	742.532	0.571
315.65	0.902	729.096	0.59
315.65	0.943	723.661	0.6
315.65	1	715.636	0.596
318.15	0	843.437	0.406
318.15	0.053	836.384	0.437
318.15	0.116	828.127	0.448
318.15	0.199	817.267	0.464
318.15	0.301	803.893	0.483
318.15	0.371	794.887	0.495
318.15	0.463	782.821	0.513
318.15	0.61	763.899	0.54
318.15	0.688	753.908	0.554
318.15	0.797	739.897	0.574
318.15	0.902	726.409	0.594
318.15	0.943	720.958	0.604
318.15	1	712.897	0.6
320.65	0	841.075	0.41
320.65	0.053	834.008	0.44
320.65	0.116	825.73	0.452
320.65	0.199	814.847	0.467
320.65	0.301	801.438	0.486
320.65	0.371	792.407	0.499
320.65	0.463	780.31	0.516
320.65	0.61	761.327	0.544
320.65	0.688	751.303	0.558
320.65	0.797	737.246	0.578
320.65	0.902	723.713	0.598
320.65	0.943	718.237	0.608
320.65	1	710.141	0.604
323.15	0	838.706	0.413
323.15	0.053	831.624	0.444
323.15	0.116	823.329	0.455
323.15	0.199	812.42	0.471
323.15	0.301	798.979	0.49
323.15	0.371	789.92	0.503
323.15	0.463	777.787	0.52
323.15	0.61	758.745	0.547
323.15	0.688	748.686	0.562
323.15	0.797	734.592	0.582
323.15	0.902	721	0.603
323.15	0.943	715.503	0.613
323.15	1	707.381	0.609

System: ethylbenzene + 2-methoxy-2-methylpropane; phases: Liquid
Fixed: Pressure, kPa = 101
Property: Speed of sound, m/s (Liquid); method: Single path-length method
Temperature, K	Mole fraction of 2-methoxy-2-methylpropane	Speed of sound, m/s	uncertainty
288.15	0	1360.73	2.11
288.15	0.046	1348.32	2.13
288.15	0.106	1334.44	2.12
288.15	0.212	1307.22	2.12
288.15	0.299	1284.6	2.12
288.15	0.402	1256.66	2.13
288.15	0.503	1231.37	2.11
288.15	0.6	1201.33	2.14
288.15	0.701	1171.87	2.13
288.15	0.822	1136.22	2.13
288.15	0.899	1112.67	2.14
288.15	0.948	1097.35	2.14
288.15	1	1083.38	2.11
290.65	0	1349.91	2.11
290.65	0.046	1337.57	2.12
290.65	0.106	1323.37	2.12
290.65	0.212	1296.35	2.12
290.65	0.299	1273.7	2.12
290.65	0.402	1245.62	2.12
290.65	0.503	1220.15	2.13
290.65	0.6	1190.06	2.13
290.65	0.701	1160.52	2.13
290.65	0.822	1124.48	2.13
290.65	0.899	1100.72	2.14
290.65	0.948	1085.43	2.13
290.65	1	1071.61	2.11
293.15	0	1339.4	2.1
293.15	0.046	1326.8	2.12
293.15	0.106	1312.72	2.12
293.15	0.212	1285.46	2.12
293.15	0.299	1262.79	2.12
293.15	0.402	1234.63	2.12
293.15	0.503	1209.17	2.13
293.15	0.6	1178.96	2.13
293.15	0.701	1149.35	2.13
293.15	0.822	1113.17	2.13
293.15	0.899	1089.18	2.14
293.15	0.948	1073.85	2.13
293.15	1	1060.05	2.11
295.65	0	1328.86	2.1
295.65	0.046	1316.32	2.12
295.65	0.106	1301.98	2.12
295.65	0.212	1274.76	2.12
295.65	0.299	1251.98	2.12
295.65	0.402	1223.67	2.12
295.65	0.503	1198.2	2.13
295.65	0.6	1167.85	2.13
295.65	0.701	1138.14	2.13
295.65	0.822	1101.82	2.13
295.65	0.899	1077.73	2.13
295.65	0.948	1062.33	2.13
295.65	1	1048.48	2.11
298.15	0	1318.36	2.1
298.15	0.046	1305.99	2.12
298.15	0.106	1291.4	2.12
298.15	0.212	1264.1	2.12
298.15	0.299	1241.21	2.12
298.15	0.402	1212.68	2.13
298.15	0.503	1187.27	2.13
298.15	0.6	1156.76	2.13
298.15	0.701	1126.99	2.13
298.15	0.822	1090.49	2.13
298.15	0.899	1066.31	2.13
298.15	0.948	1050.85	2.13
298.15	1	1036.94	2.11
300.65	0	1307.9	2.1
300.65	0.046	1295.75	2.12
300.65	0.106	1280.88	2.12
300.65	0.212	1253.49	2.12
300.65	0.299	1230.49	2.12
300.65	0.402	1201.5	2.12
300.65	0.503	1176.37	2.13
300.65	0.6	1145.66	2.13
300.65	0.701	1115.86	2.13
300.65	0.822	1079.23	2.13
300.65	0.899	1054.93	2.13
300.65	0.948	1039.4	2.13
300.65	1	1025.42	2.11
303.15	0	1297.48	2.1
303.15	0.046	1285.48	2.12
303.15	0.106	1270.4	2.12
303.15	0.212	1242.91	2.12
303.15	0.299	1219.79	2.12
303.15	0.402	1190.71	2.12
303.15	0.503	1165.53	2.13
303.15	0.6	1134.25	2.13
303.15	0.701	1104.77	2.13
303.15	0.822	1067.98	2.13
303.15	0.899	1043.58	2.13
303.15	0.948	1027.97	2.13
303.15	1	1013.9	2.11
305.65	0	1287.09	2.1
305.65	0.046	1275.21	2.12
305.65	0.106	1259.95	2.12
305.65	0.212	1232.38	2.12
305.65	0.299	1209.15	2.12
305.65	0.402	1179.95	2.12
305.65	0.503	1154.73	2.13
305.65	0.6	1123.15	2.13
305.65	0.701	1093.71	2.13
305.65	0.822	1056.78	2.13
305.65	0.899	1032.26	2.13
305.65	0.948	1016.58	2.13
305.65	1	1002.41	2.11
308.15	0	1276.75	2.1
308.15	0.046	1264.94	2.12
308.15	0.106	1249.55	2.12
308.15	0.212	1221.89	2.12
308.15	0.299	1198.54	2.12
308.15	0.402	1169.25	2.12
308.15	0.503	1143.95	2.13
308.15	0.6	1112.21	2.13
308.15	0.701	1082.69	2.13
308.15	0.822	1045.62	2.13
308.15	0.899	1020.97	2.13
308.15	0.948	1005.22	2.13
308.15	1	990.99	2.11
310.65	0	1266.54	2.1
310.65	0.046	1254.79	2.12
310.65	0.106	1239.22	2.12
310.65	0.212	1211.46	2.12
310.65	0.299	1188.06	2.12
310.65	0.402	1158.59	2.12
310.65	0.503	1133.19	2.13
310.65	0.6	1101.37	2.13
310.65	0.701	1071.77	2.13
310.65	0.822	1034.57	2.13
310.65	0.899	1009.77	2.13
310.65	0.948	993.9	2.13
310.65	1	979.62	2.11
313.15	0	1256.29	2.1
313.15	0.046	1244.61	2.12
313.15	0.106	1228.98	2.12
313.15	0.212	1201.05	2.12
313.15	0.299	1177.49	2.12
313.15	0.402	1147.95	2.12
313.15	0.503	1122.5	2.12
313.15	0.6	1090.47	2.13
313.15	0.701	1060.84	2.13
313.15	0.822	1023.44	2.13
313.15	0.899	998.53	2.13
313.15	0.948	982.63	2.13
313.15	1	968.16	2.11
315.65	0	1246.12	2.1
315.65	0.046	1234.49	2.12
315.65	0.106	1218.74	2.12
315.65	0.212	1190.79	2.12
315.65	0.299	1166.93	2.12
315.65	0.402	1137.45	2.12
315.65	0.503	1111.92	2.12
315.65	0.6	1079.6	2.13
315.65	0.701	1049.95	2.13
315.65	0.822	1012.38	2.13
315.65	0.899	987.36	2.13
315.65	0.948	971.33	2.13
315.65	1	956.8	2.11
318.15	0	1236.06	2.1
318.15	0.046	1224.45	2.12
318.15	0.106	1208.65	2.12
318.15	0.212	1180.52	2.12
318.15	0.299	1155.93	2.12
318.15	0.402	1127	2.12
318.15	0.503	1101.38	2.12
318.15	0.6	1068.91	2.13
318.15	0.701	1039.17	2.13
318.15	0.822	1001.4	2.13
318.15	0.899	976.23	2.13
318.15	0.948	960.13	2.13
318.15	1	945.54	2.11
320.65	0	1226.09	2.1
320.65	0.046	1214.45	2.12
320.65	0.106	1198.62	2.12
320.65	0.212	1170.4	2.12
320.65	0.299	1145.99	2.12
320.65	0.402	1116.75	2.12
320.65	0.503	1091	2.12
320.65	0.6	1058.69	2.12
320.65	0.701	1028.4	2.13
320.65	0.822	990.46	2.13
320.65	0.899	965.11	2.13
320.65	0.948	948.99	2.13
320.65	1	934.24	2.11
323.15	0	1216.34	2.1
323.15	0.046	1204.7	2.12
323.15	0.106	1188.8	2.12
323.15	0.212	1160.49	2.12
323.15	0.299	1136.3	2.12
323.15	0.402	1106.92	2.11
323.15	0.503	1080.84	2.14
323.15	0.6	1048.75	2.12
323.15	0.701	1017.83	2.13
323.15	0.822	979.73	2.13
323.15	0.899	954.17	2.13
323.15	0.948	938	2.12
323.15	1	922.97	2.11

System: ethylbenzene + 2-methoxy-2-methylpropane; phases: Liquid
Fixed: Pressure, kPa = 101
Property: Mass density, kg/m3 (Liquid); method: VIBTUB:UFactor:4
Temperature, K	Mole fraction of 2-methoxy-2-methylpropane	Mass density, kg/m3	uncertainty
288.15	0	871.245	0.364
288.15	0.046	866.075	0.389
288.15	0.106	859.155	0.399
288.15	0.212	846.925	0.417
288.15	0.299	836.536	0.433
288.15	0.402	823.953	0.45
288.15	0.503	812.763	0.467
288.15	0.6	799.067	0.491
288.15	0.701	785.93	0.508
288.15	0.822	769.744	0.532
288.15	0.899	759.058	0.549
288.15	0.948	752.102	0.559
288.15	1	744.861	0.552
290.65	0	869.052	0.368
290.65	0.046	863.868	0.392
290.65	0.106	856.925	0.403
290.65	0.212	844.671	0.421
290.65	0.299	834.249	0.436
290.65	0.402	821.631	0.453
290.65	0.503	810.408	0.472
290.65	0.6	796.665	0.494
290.65	0.701	783.488	0.512
290.65	0.822	767.243	0.536
290.65	0.899	756.516	0.553
290.65	0.948	749.532	0.563
290.65	1	742.259	0.556
293.15	0	866.856	0.371
293.15	0.046	861.653	0.396
293.15	0.106	854.698	0.406
293.15	0.212	842.406	0.424
293.15	0.299	831.951	0.44
293.15	0.402	819.3	0.457
293.15	0.503	808.048	0.475
293.15	0.6	794.26	0.498
293.15	0.701	781.04	0.516
293.15	0.822	764.736	0.54
293.15	0.899	753.964	0.557
293.15	0.948	746.956	0.567
293.15	1	739.654	0.56
295.65	0	864.66	0.374
295.65	0.046	859.445	0.399
295.65	0.106	852.469	0.409
295.65	0.212	840.144	0.427
295.65	0.299	829.658	0.443
295.65	0.402	816.97	0.46
295.65	0.503	805.684	0.479
295.65	0.6	791.851	0.501
295.65	0.701	778.587	0.519
295.65	0.822	762.221	0.544
295.65	0.899	751.405	0.561
295.65	0.948	744.369	0.571
295.65	1	737.036	0.564
298.15	0	862.459	0.378
298.15	0.046	857.231	0.402
298.15	0.106	850.237	0.412
298.15	0.212	837.881	0.431
298.15	0.299	827.364	0.447
298.15	0.402	814.636	0.464
298.15	0.503	803.312	0.482
298.15	0.6	789.435	0.505
298.15	0.701	776.124	0.523
298.15	0.822	759.695	0.548
298.15	0.899	748.835	0.564
298.15	0.948	741.772	0.575
298.15	1	734.406	0.568
300.65	0	860.256	0.381
300.65	0.046	855.014	0.405
300.65	0.106	848.001	0.416
300.65	0.212	835.613	0.434
300.65	0.299	825.064	0.45
300.65	0.402	812.278	0.467
300.65	0.503	800.937	0.486
300.65	0.6	787.011	0.508
300.65	0.701	773.654	0.527
300.65	0.822	757.162	0.551
300.65	0.899	746.257	0.568
300.65	0.948	739.163	0.579
300.65	1	731.766	0.572
303.15	0	858.047	0.384
303.15	0.046	852.795	0.409
303.15	0.106	845.762	0.419
303.15	0.212	833.338	0.437
303.15	0.299	822.758	0.453
303.15	0.402	809.93	0.471
303.15	0.503	798.555	0.489
303.15	0.6	784.554	0.512
303.15	0.701	771.175	0.53
303.15	0.822	754.617	0.555
303.15	0.899	743.666	0.572
303.15	0.948	736.543	0.583
303.15	1	729.112	0.576
305.65	0	855.837	0.387
305.65	0.046	850.573	0.412
305.65	0.106	843.52	0.422
305.65	0.212	831.061	0.441
305.65	0.299	820.447	0.457
305.65	0.402	807.578	0.474
305.65	0.503	796.166	0.493
305.65	0.6	782.111	0.516
305.65	0.701	768.689	0.534
305.65	0.822	752.062	0.559
305.65	0.899	741.065	0.576
305.65	0.948	733.91	0.587
305.65	1	726.444	0.58
308.15	0	853.622	0.391
308.15	0.046	848.347	0.415
308.15	0.106	841.274	0.426
308.15	0.212	828.779	0.444
308.15	0.299	818.132	0.46
308.15	0.402	805.218	0.478
308.15	0.503	793.77	0.496
308.15	0.6	779.66	0.519
308.15	0.701	766.192	0.538
308.15	0.822	749.497	0.563
308.15	0.899	738.451	0.58
308.15	0.948	731.264	0.591
308.15	1	723.763	0.584
310.65	0	851.407	0.394
310.65	0.046	846.119	0.419
310.65	0.106	839.024	0.429
310.65	0.212	826.493	0.447
310.65	0.299	815.815	0.464
310.65	0.402	802.853	0.481
310.65	0.503	791.367	0.5
310.65	0.6	777.204	0.523
310.65	0.701	763.689	0.542
310.65	0.822	746.926	0.567
310.65	0.899	735.825	0.584
310.65	0.948	728.607	0.595
310.65	1	721.069	0.588
313.15	0	849.186	0.397
313.15	0.046	843.886	0.422
313.15	0.106	836.773	0.432
313.15	0.212	824.202	0.451
313.15	0.299	813.486	0.467
313.15	0.402	800.48	0.485
313.15	0.503	788.959	0.504
313.15	0.6	774.736	0.527
313.15	0.701	761.174	0.546
313.15	0.822	744.341	0.571
313.15	0.899	733.188	0.588
313.15	0.948	725.934	0.599
313.15	1	718.357	0.592
315.65	0	846.964	0.401
315.65	0.046	841.648	0.425
315.65	0.106	834.515	0.436
315.65	0.212	821.909	0.454
315.65	0.299	811.155	0.471
315.65	0.402	798.107	0.488
315.65	0.503	786.547	0.507
315.65	0.6	772.257	0.531
315.65	0.701	758.651	0.549
315.65	0.822	741.744	0.575
315.65	0.899	730.538	0.592
315.65	0.948	723.249	0.603
315.65	1	715.636	0.596
318.15	0	844.741	0.404
318.15	0.046	839.413	0.428
318.15	0.106	832.261	0.439
318.15	0.212	819.612	0.458
318.15	0.299	808.784	0.474
318.15	0.402	795.73	0.492
318.15	0.503	784.128	0.511
318.15	0.6	769.777	0.534
318.15	0.701	756.122	0.553
318.15	0.822	739.136	0.579
318.15	0.899	727.875	0.596
318.15	0.948	720.551	0.607
318.15	1	712.897	0.6
320.65	0	842.518	0.407
320.65	0.046	837.173	0.432
320.65	0.106	830.003	0.442
320.65	0.212	817.315	0.461
320.65	0.299	806.474	0.478
320.65	0.402	793.356	0.495
320.65	0.503	781.711	0.515
320.65	0.6	767.333	0.538
320.65	0.701	753.581	0.557
320.65	0.822	736.516	0.583
320.65	0.899	725.199	0.6
320.65	0.948	717.839	0.611
320.65	1	710.141	0.604
323.15	0	840.306	0.411
323.15	0.046	834.949	0.435
323.15	0.106	827.754	0.446
323.15	0.212	815.028	0.465
323.15	0.299	804.174	0.481
323.15	0.402	791.012	0.498
323.15	0.503	779.302	0.52
323.15	0.6	764.898	0.541
323.15	0.701	751.042	0.561
323.15	0.822	733.902	0.587
323.15	0.899	722.521	0.605
323.15	0.948	715.125	0.615
323.15	1	707.381	0.609

System: 2,2,4-trimethylpentane + 2-methoxy-2-methylpropane; phases: Liquid
Fixed: Pressure, kPa = 101
Property: Speed of sound, m/s (Liquid); method: Single path-length method
Temperature, K	Mole fraction of 2-methoxy-2-methylpropane	Speed of sound, m/s	uncertainty
288.15	0	1124.31	2.1
288.15	0.049	1121.76	2.1
288.15	0.091	1119.48	2.11
288.15	0.197	1113.86	2.11
288.15	0.296	1108.7	2.11
288.15	0.394	1103.74	2.11
288.15	0.507	1098.54	2.11
288.15	0.603	1094.92	2.11
288.15	0.7	1090.87	2.11
288.15	0.79	1087.76	2.11
288.15	0.898	1084.61	2.11
288.15	0.951	1083.37	2.11
288.15	1	1082.11	2.11
290.65	0	1113.83	2.1
290.65	0.049	1111.21	2.11
290.65	0.091	1108.83	2.11
290.65	0.197	1103.3	2.11
290.65	0.296	1097.93	2.11
290.65	0.394	1092.89	2.11
290.65	0.507	1087.64	2.11
290.65	0.603	1083.94	2.11
290.65	0.7	1079.85	2.11
290.65	0.79	1076.68	2.11
290.65	0.898	1073.34	2.11
290.65	0.951	1071.99	2.11
290.65	1	1070.62	2.11
293.15	0	1103.3	2.1
293.15	0.049	1100.63	2.11
293.15	0.091	1098.2	2.11
293.15	0.197	1092.59	2.11
293.15	0.296	1087.09	2.11
293.15	0.394	1082.04	2.11
293.15	0.507	1076.66	2.11
293.15	0.603	1072.87	2.11
293.15	0.7	1068.68	2.11
293.15	0.79	1065.47	2.11
293.15	0.898	1062	2.11
293.15	0.951	1060.56	2.11
293.15	1	1059.1	2.11
295.65	0	1092.66	2.1
295.65	0.049	1089.97	2.11
295.65	0.091	1087.49	2.11
295.65	0.197	1081.81	2.11
295.65	0.296	1076.17	2.11
295.65	0.394	1071.08	2.11
295.65	0.507	1065.58	2.11
295.65	0.603	1061.73	2.11
295.65	0.7	1057.55	2.11
295.65	0.79	1054.18	2.11
295.65	0.898	1050.55	2.11
295.65	0.951	1049.03	2.11
295.65	1	1047.83	2.11
298.15	0	1082.2	2.1
298.15	0.049	1079.41	2.11
298.15	0.091	1076.87	2.11
298.15	0.197	1071.16	2.11
298.15	0.296	1065.45	2.11
298.15	0.394	1060.2	2.11
298.15	0.507	1054.67	2.11
298.15	0.603	1050.73	2.11
298.15	0.7	1046.37	2.11
298.15	0.79	1042.91	2.11
298.15	0.898	1039.23	2.11
298.15	0.951	1037.63	2.11
298.15	1	1036.63	2.11
300.65	0	1071.72	2.1
300.65	0.049	1068.9	2.1
300.65	0.091	1066.33	2.1
300.65	0.197	1060.55	2.11
300.65	0.296	1054.73	2.11
300.65	0.394	1049.4	2.11
300.65	0.507	1043.75	2.11
300.65	0.603	1039.69	2.11
300.65	0.7	1035.23	2.11
300.65	0.79	1031.66	2.11
300.65	0.898	1027.87	2.11
300.65	0.951	1026.19	2.11
300.65	1	1025.38	2.11
303.15	0	1061.3	2.1
303.15	0.049	1058.43	2.1
303.15	0.091	1055.84	2.1
303.15	0.197	1050.01	2.11
303.15	0.296	1044.04	2.11
303.15	0.394	1038.65	2.11
303.15	0.507	1032.83	2.11
303.15	0.603	1028.69	2.11
303.15	0.7	1024.11	2.11
303.15	0.79	1020.42	2.11
303.15	0.898	1016.51	2.11
303.15	0.951	1014.8	2.11
303.15	1	1014.04	2.11
305.65	0	1050.89	2.1
305.65	0.049	1048.06	2.1
305.65	0.091	1045.38	2.1
305.65	0.197	1039.47	2.1
305.65	0.296	1033.38	2.11
305.65	0.394	1028.04	2.1
305.65	0.507	1021.92	2.11
305.65	0.603	1017.71	2.11
305.65	0.7	1013	2.11
305.65	0.79	1009.2	2.11
305.65	0.898	1005.18	2.11
305.65	0.951	1003.43	2.11
305.65	1	1002.7	2.11
308.15	0	1040.53	2.1
308.15	0.049	1037.69	2.1
308.15	0.091	1034.98	2.1
308.15	0.197	1029.03	2.1
308.15	0.296	1022.78	2.11
308.15	0.394	1017.58	2.11
308.15	0.507	1011.05	2.11
308.15	0.603	1006.79	2.11
308.15	0.7	1001.98	2.11
308.15	0.79	998.04	2.11
308.15	0.898	993.91	2.11
308.15	0.951	992.13	2.11
308.15	1	991.34	2.11
310.65	0	1030.22	2.1
310.65	0.049	1027.33	2.1
310.65	0.091	1024.6	2.1
310.65	0.197	1018.49	2.1
310.65	0.296	1012.21	2.1
310.65	0.394	1006.85	2.11
310.65	0.507	1000.23	2.11
310.65	0.603	995.9	2.11
310.65	0.7	991.12	2.11
310.65	0.79	986.9	2.11
310.65	0.898	982.76	2.11
310.65	0.951	981.15	2.11
310.65	1	980	2.11
313.15	0	1019.94	2.1
313.15	0.049	1017.02	2.1
313.15	0.091	1014.35	2.1
313.15	0.197	1007.98	2.1
313.15	0.296	1001.85	2.1
313.15	0.394	996.15	2.11
313.15	0.507	989.48	2.11
313.15	0.603	984.99	2.11
313.15	0.7	980.08	2.11
313.15	0.79	975.76	2.11
313.15	0.898	971.49	2.11
313.15	0.951	969.68	2.11
313.15	1	968.63	2.11
315.65	0	1009.71	2.1
315.65	0.049	1006.75	2.1
315.65	0.091	1003.97	2.1
315.65	0.197	997.54	2.1
315.65	0.296	991.38	2.1
315.65	0.394	985.48	2.11
315.65	0.507	978.73	2.11
315.65	0.603	974.09	2.11
315.65	0.7	969.06	2.11
315.65	0.79	964.56	2.11
315.65	0.898	960.23	2.11
315.65	0.951	958.31	2.11
315.65	1	957.31	2.11
318.15	0	999.53	2.1
318.15	0.049	996.53	2.1
318.15	0.091	993.65	2.1
318.15	0.197	987.14	2.1
318.15	0.296	980.84	2.11
318.15	0.394	974.83	2.11
318.15	0.507	968.07	2.11
318.15	0.603	963.2	2.11
318.15	0.7	958.04	2.11
318.15	0.79	953.55	2.11
318.15	0.898	949.03	2.11
318.15	0.951	947.02	2.11
318.15	1	946.03	2.11
320.65	0	989.37	2.1
320.65	0.049	986.33	2.1
320.65	0.091	983.34	2.1
320.65	0.197	976.73	2.1
320.65	0.296	970.3	2.11
320.65	0.394	964.2	2.11
320.65	0.507	957.34	2.11
320.65	0.603	952.36	2.11
320.65	0.7	947.08	2.11
320.65	0.79	942.46	2.11
320.65	0.898	937.81	2.11
320.65	0.951	935.72	2.11
320.65	1	934.76	2.11
323.15	0	979.25	2.1
323.15	0.049	976.18	2.1
323.15	0.091	973.04	2.1
323.15	0.197	966.34	2.1
323.15	0.296	959.8	2.1
323.15	0.394	953.63	2.1
323.15	0.507	946.69	2.1
323.15	0.603	941.57	2.11
323.15	0.7	936.24	2.11
323.15	0.79	931.51	2.11
323.15	0.898	926.65	2.11
323.15	0.951	924.5	2.11
323.15	1	923.46	2.11

System: 2,2,4-trimethylpentane + 2-methoxy-2-methylpropane; phases: Liquid
Fixed: Pressure, kPa = 101
Property: Mass density, kg/m3 (Liquid); method: VIBTUB:UFactor:4
Temperature, K	Mole fraction of 2-methoxy-2-methylpropane	Mass density, kg/m3	uncertainty
288.15	0	695.948	0.624
288.15	0.049	697.553	0.623
288.15	0.091	698.921	0.621
288.15	0.197	702.655	0.616
288.15	0.296	706.427	0.61
288.15	0.394	710.506	0.605
288.15	0.507	715.659	0.597
288.15	0.603	720.373	0.591
288.15	0.7	725.737	0.583
288.15	0.79	731.164	0.576
288.15	0.898	738.236	0.566
288.15	0.951	742.111	0.56
288.15	1	744.861	0.552
290.65	0	693.91	0.627
290.65	0.049	695.495	0.626
290.65	0.091	696.847	0.624
290.65	0.197	700.534	0.619
290.65	0.296	704.261	0.613
290.65	0.394	708.292	0.608
290.65	0.507	713.386	0.6
290.65	0.603	718.048	0.594
290.65	0.7	723.357	0.587
290.65	0.79	728.726	0.579
290.65	0.898	735.725	0.57
290.65	0.951	739.564	0.564
290.65	1	742.259	0.556
293.15	0	691.861	0.631
293.15	0.049	693.424	0.629
293.15	0.091	694.76	0.627
293.15	0.197	698.399	0.622
293.15	0.296	702.081	0.617
293.15	0.394	706.064	0.611
293.15	0.507	711.097	0.604
293.15	0.603	715.704	0.597
293.15	0.7	720.957	0.59
293.15	0.79	726.269	0.583
293.15	0.898	733.196	0.573
293.15	0.951	736.997	0.567
293.15	1	739.654	0.56
295.65	0	689.809	0.634
295.65	0.049	691.351	0.632
295.65	0.091	692.668	0.63
295.65	0.197	696.259	0.625
295.65	0.296	699.893	0.62
295.65	0.394	703.829	0.614
295.65	0.507	708.799	0.607
295.65	0.603	713.354	0.601
295.65	0.7	718.545	0.594
295.65	0.79	723.8	0.587
295.65	0.898	730.656	0.577
295.65	0.951	734.419	0.571
295.65	1	737.036	0.564
298.15	0	687.749	0.637
298.15	0.049	689.271	0.635
298.15	0.091	690.571	0.633
298.15	0.197	694.113	0.628
298.15	0.296	697.7	0.623
298.15	0.394	701.586	0.618
298.15	0.507	706.495	0.611
298.15	0.603	710.995	0.604
298.15	0.7	716.128	0.597
298.15	0.79	721.323	0.59
298.15	0.898	728.107	0.581
298.15	0.951	731.831	0.575
298.15	1	734.406	0.568
300.65	0	685.687	0.64
300.65	0.049	687.187	0.638
300.65	0.091	688.468	0.637
300.65	0.197	691.962	0.631
300.65	0.296	695.502	0.626
300.65	0.394	699.338	0.621
300.65	0.507	704.182	0.614
300.65	0.603	708.63	0.608
300.65	0.7	713.701	0.601
300.65	0.79	718.837	0.594
300.65	0.898	725.547	0.584
300.65	0.951	729.232	0.579
300.65	1	731.766	0.572
303.15	0	683.618	0.643
303.15	0.049	685.097	0.641
303.15	0.091	686.359	0.64
303.15	0.197	689.806	0.635
303.15	0.296	693.296	0.63
303.15	0.394	697.081	0.624
303.15	0.507	701.866	0.618
303.15	0.603	706.257	0.611
303.15	0.7	711.266	0.604
303.15	0.79	716.339	0.598
303.15	0.898	722.977	0.588
303.15	0.951	726.622	0.583
303.15	1	729.112	0.576
305.65	0	681.542	0.646
305.65	0.049	683.001	0.645
305.65	0.091	684.244	0.643
305.65	0.197	687.643	0.638
305.65	0.296	691.083	0.633
305.65	0.394	694.818	0.628
305.65	0.507	699.54	0.621
305.65	0.603	703.873	0.615
305.65	0.7	708.82	0.608
305.65	0.79	713.83	0.601
305.65	0.898	720.394	0.592
305.65	0.951	723.998	0.586
305.65	1	726.444	0.58
308.15	0	679.459	0.649
308.15	0.049	680.9	0.648
308.15	0.091	682.124	0.646
308.15	0.197	685.47	0.641
308.15	0.296	688.864	0.636
308.15	0.394	692.544	0.631
308.15	0.507	697.225	0.624
308.15	0.603	701.481	0.619
308.15	0.7	706.365	0.612
308.15	0.79	711.31	0.605
308.15	0.898	717.802	0.596
308.15	0.951	721.377	0.59
308.15	1	723.763	0.584
310.65	0	677.373	0.652
310.65	0.049	678.79	0.651
310.65	0.091	679.994	0.649
310.65	0.197	683.293	0.644
310.65	0.296	686.637	0.64
310.65	0.394	690.27	0.635
310.65	0.507	694.875	0.628
310.65	0.603	699.077	0.622
310.65	0.7	703.915	0.615
310.65	0.79	708.777	0.609
310.65	0.898	715.208	0.6
310.65	0.951	718.741	0.594
310.65	1	721.069	0.588
313.15	0	675.278	0.656
313.15	0.049	676.674	0.654
313.15	0.091	677.857	0.652
313.15	0.197	681.108	0.648
313.15	0.296	684.416	0.643
313.15	0.394	687.984	0.638
313.15	0.507	692.513	0.631
313.15	0.603	696.659	0.626
313.15	0.7	701.432	0.619
313.15	0.79	706.232	0.612
313.15	0.898	712.585	0.604
313.15	0.951	716.075	0.598
313.15	1	718.357	0.592
315.65	0	673.177	0.659
315.65	0.049	674.551	0.657
315.65	0.091	675.716	0.656
315.65	0.197	678.915	0.651
315.65	0.296	682.172	0.646
315.65	0.394	685.682	0.641
315.65	0.507	690.141	0.635
315.65	0.603	694.229	0.629
315.65	0.7	698.938	0.623
315.65	0.79	703.665	0.616
315.65	0.898	709.948	0.607
315.65	0.951	713.392	0.602
315.65	1	715.636	0.596
318.15	0	671.069	0.662
318.15	0.049	672.418	0.66
318.15	0.091	673.564	0.659
318.15	0.197	676.709	0.654
318.15	0.296	679.911	0.65
318.15	0.394	683.366	0.645
318.15	0.507	687.763	0.639
318.15	0.603	691.788	0.633
318.15	0.7	696.427	0.626
318.15	0.79	701.097	0.62
318.15	0.898	707.292	0.611
318.15	0.951	710.693	0.606
318.15	1	712.897	0.6
320.65	0	668.954	0.665
320.65	0.049	670.282	0.664
320.65	0.091	671.436	0.662
320.65	0.197	674.493	0.658
320.65	0.296	677.642	0.653
320.65	0.394	681.043	0.648
320.65	0.507	685.37	0.642
320.65	0.603	689.334	0.637
320.65	0.7	693.905	0.63
320.65	0.79	698.504	0.624
320.65	0.898	704.622	0.615
320.65	0.951	707.978	0.61
320.65	1	710.141	0.604
323.15	0	666.832	0.668
323.15	0.049	668.138	0.667
323.15	0.091	669.267	0.665
323.15	0.197	672.267	0.661
323.15	0.296	675.361	0.656
323.15	0.394	678.707	0.652
323.15	0.507	682.969	0.646
323.15	0.603	686.867	0.64
323.15	0.7	691.375	0.634
323.15	0.79	695.909	0.627
323.15	0.898	701.938	0.619
323.15	0.951	705.25	0.615
323.15	1	707.381	0.609

System: 2-methylpropan-2-ol + 2-methoxy-2-methylpropane; phases: Liquid
Fixed: Pressure, kPa = 101
Property: Speed of sound, m/s (Liquid); method: Single path-length method
Temperature, K	Mole fraction of 2-methoxy-2-methylpropane	Speed of sound, m/s	uncertainty
301.65	0	1108.98	2.17
301.65	0.049	1105.41	2.18
301.65	0.1	1100.67	2.18
301.65	0.215	1089.35	2.17
301.65	0.314	1079.69	2.18
301.65	0.4	1072.04	2.17
301.65	0.498	1063.59	2.18
301.65	0.597	1055.55	2.19
301.65	0.707	1047.57	2.19
301.65	0.799	1040.83	2.19
301.65	0.9	1033.08	2.19
301.65	0.951	1028.81	2.19
301.65	1	1024.33	2.2
303.15	0	1099.02	2.12
303.15	0.049	1094.69	2.13
303.15	0.1	1090.25	2.12
303.15	0.215	1079.09	2.12
303.15	0.314	1069.65	2.12
303.15	0.4	1061.93	2.12
303.15	0.498	1053.12	2.12
303.15	0.597	1045	2.13
303.15	0.707	1036.67	2.13
303.15	0.799	1029.86	2.13
303.15	0.9	1021.91	2.13
303.15	0.951	1017.59	2.13
303.15	1	1012.81	2.14
305.65	0	1088.33	2.11
305.65	0.049	1083.98	2.11
305.65	0.1	1079.68	2.11
305.65	0.215	1068.69	2.11
305.65	0.314	1059.44	2.1
305.65	0.4	1051.72	2.1
305.65	0.498	1042.61	2.11
305.65	0.597	1034.29	2.11
305.65	0.707	1025.94	2.11
305.65	0.799	1018.7	2.11
305.65	0.9	1010.6	2.11
305.65	0.951	1006.29	2.11
305.65	1	1001.35	2.11
308.15	0	1077.71	2.1
308.15	0.049	1073.25	2.11
308.15	0.1	1069.1	2.11
308.15	0.215	1058.21	2.11
308.15	0.314	1049.11	2.11
308.15	0.4	1041.22	2.11
308.15	0.498	1032.03	2.11
308.15	0.597	1023.49	2.11
308.15	0.707	1015.17	2.11
308.15	0.799	1007.62	2.11
308.15	0.9	999.39	2.11
308.15	0.951	994.94	2.11
308.15	1	989.9	2.11
310.65	0	1067.22	2.1
310.65	0.049	1062.61	2.11
310.65	0.1	1058.87	2.1
310.65	0.215	1047.9	2.11
310.65	0.314	1038.63	2.11
310.65	0.4	1030.64	2.11
310.65	0.498	1021.35	2.11
310.65	0.597	1012.78	2.11
310.65	0.707	1004.28	2.11
310.65	0.799	996.52	2.11
310.65	0.9	988.12	2.11
310.65	0.951	983.57	2.11
310.65	1	978.47	2.11
313.15	0	1056.73	2.1
313.15	0.049	1052.05	2.11
313.15	0.1	1048.39	2.11
313.15	0.215	1037.39	2.11
313.15	0.314	1028.16	2.11
313.15	0.4	1020.25	2.11
313.15	0.498	1010.91	2.11
313.15	0.597	1002.02	2.11
313.15	0.707	993.34	2.11
313.15	0.799	985.44	2.11
313.15	0.9	976.81	2.11
313.15	0.951	972.48	2.11
313.15	1	967.03	2.11
315.65	0	1046.12	2.1
315.65	0.049	1041.53	2.11
315.65	0.1	1037.81	2.11
315.65	0.215	1026.85	2.11
315.65	0.314	1017.66	2.11
315.65	0.4	1009.68	2.11
315.65	0.498	1000.24	2.11
315.65	0.597	991.47	2.11
315.65	0.707	982.37	2.11
315.65	0.799	974.33	2.11
315.65	0.9	965.56	2.11
315.65	0.951	961.27	2.11
315.65	1	955.73	2.11
318.15	0	1035.66	2.1
318.15	0.049	1031	2.11
318.15	0.1	1027.28	2.11
318.15	0.215	1016.34	2.11
318.15	0.314	1007.14	2.11
318.15	0.4	999.06	2.11
318.15	0.498	989.54	2.11
318.15	0.597	980.67	2.11
318.15	0.707	971.38	2.11
318.15	0.799	963.24	2.11
318.15	0.9	954.55	2.11
318.15	0.951	949.91	2.11
318.15	1	944.34	2.11
320.65	0	1025.17	2.1
320.65	0.049	1020.47	2.11
320.65	0.1	1016.75	2.11
320.65	0.215	1005.85	2.11
320.65	0.314	996.62	2.11
320.65	0.4	988.47	2.11
320.65	0.498	978.82	2.11
320.65	0.597	969.8	2.11
320.65	0.707	960.4	2.11
320.65	0.799	952.31	2.11
320.65	0.9	943.3	2.11
320.65	0.951	938.58	2.11
320.65	1	933.01	2.11
323.15	0	1014.76	2.1
323.15	0.049	1009.99	2.1
323.15	0.1	1006.31	2.11
323.15	0.215	995.37	2.11
323.15	0.314	986.19	2.11
323.15	0.4	977.86	2.11
323.15	0.498	968.08	2.11
323.15	0.597	958.97	2.11
323.15	0.707	949.42	2.11
323.15	0.799	941.22	2.11
323.15	0.9	931.99	2.11
323.15	0.951	927.25	2.12
323.15	1	921.93	2.11

System: 2-methylpropan-2-ol + 2-methoxy-2-methylpropane; phases: Liquid
Fixed: Pressure, kPa = 101
Property: Mass density, kg/m3 (Liquid); method: VIBTUB:UFactor:4
Temperature, K	Mole fraction of 2-methoxy-2-methylpropane	Mass density, kg/m3	uncertainty
301.65	0	777.762	0.507
301.65	0.049	775.452	0.512
301.65	0.1	772.914	0.516
301.65	0.215	767.025	0.525
301.65	0.314	761.986	0.533
301.65	0.4	757.94	0.538
301.65	0.498	753.459	0.545
301.65	0.597	749.177	0.551
301.65	0.707	744.495	0.558
301.65	0.799	740.646	0.564
301.65	0.9	736.522	0.57
301.65	0.951	734.553	0.572
301.65	1	732.643	0.574
303.15	0	775.212	0.508
303.15	0.049	772.916	0.514
303.15	0.1	770.395	0.518
303.15	0.215	764.529	0.526
303.15	0.314	759.479	0.534
303.15	0.4	755.424	0.539
303.15	0.498	750.928	0.546
303.15	0.597	746.615	0.552
303.15	0.707	741.905	0.559
303.15	0.799	738.033	0.565
303.15	0.9	733.889	0.571
303.15	0.951	731.913	0.574
303.15	1	729.99	0.575
305.65	0	772.623	0.511
305.65	0.049	770.344	0.517
305.65	0.1	767.841	0.521
305.65	0.215	762.002	0.529
305.65	0.314	756.946	0.537
305.65	0.4	752.889	0.542
305.65	0.498	748.373	0.549
305.65	0.597	744.023	0.555
305.65	0.707	739.304	0.562
305.65	0.799	735.393	0.568
305.65	0.9	731.231	0.574
305.65	0.951	729.253	0.577
305.65	1	727.325	0.579
308.15	0	770.015	0.515
308.15	0.049	767.747	0.521
308.15	0.1	765.265	0.524
308.15	0.215	759.448	0.533
308.15	0.314	754.398	0.54
308.15	0.4	750.325	0.546
308.15	0.498	745.794	0.553
308.15	0.597	741.414	0.559
308.15	0.707	736.686	0.566
308.15	0.799	732.737	0.572
308.15	0.9	728.559	0.578
308.15	0.951	726.577	0.581
308.15	1	724.645	0.583
310.65	0	767.391	0.519
310.65	0.049	765.13	0.524
310.65	0.1	762.685	0.528
310.65	0.215	756.88	0.537
310.65	0.314	751.817	0.544
310.65	0.4	747.731	0.55
310.65	0.498	743.186	0.557
310.65	0.597	738.784	0.563
310.65	0.707	734.036	0.57
310.65	0.799	730.062	0.576
310.65	0.9	725.873	0.582
310.65	0.951	723.884	0.585
310.65	1	721.953	0.587
313.15	0	764.739	0.523
313.15	0.049	762.492	0.528
313.15	0.1	760.064	0.532
313.15	0.215	754.27	0.541
313.15	0.314	749.212	0.548
313.15	0.4	745.126	0.554
313.15	0.498	740.567	0.561
313.15	0.597	736.13	0.567
313.15	0.707	731.36	0.574
313.15	0.799	727.372	0.58
313.15	0.9	723.168	0.586
313.15	0.951	721.205	0.589
313.15	1	719.245	0.591
315.65	0	762.054	0.527
315.65	0.049	759.831	0.532
315.65	0.1	757.407	0.536
315.65	0.215	751.633	0.545
315.65	0.314	746.577	0.552
315.65	0.4	742.483	0.558
315.65	0.498	737.91	0.565
315.65	0.597	733.459	0.571
315.65	0.707	728.662	0.578
315.65	0.799	724.66	0.584
315.65	0.9	720.449	0.59
315.65	0.951	718.495	0.593
315.65	1	716.525	0.595
318.15	0	759.355	0.531
318.15	0.049	757.138	0.536
318.15	0.1	754.729	0.54
318.15	0.215	748.972	0.549
318.15	0.314	743.917	0.556
318.15	0.4	739.814	0.562
318.15	0.498	735.227	0.569
318.15	0.597	730.762	0.575
318.15	0.707	725.943	0.582
318.15	0.799	721.933	0.588
318.15	0.9	717.738	0.594
318.15	0.951	715.752	0.597
318.15	1	713.786	0.599
320.65	0	756.633	0.535
320.65	0.049	754.421	0.541
320.65	0.1	752.024	0.544
320.65	0.215	746.283	0.553
320.65	0.314	741.23	0.56
320.65	0.4	737.119	0.566
320.65	0.498	732.517	0.573
320.65	0.597	728.042	0.579
320.65	0.707	723.201	0.587
320.65	0.799	719.199	0.592
320.65	0.9	714.978	0.599
320.65	0.951	712.991	0.602
320.65	1	711.028	0.603
323.15	0	753.891	0.539
323.15	0.049	751.68	0.545
323.15	0.1	749.295	0.549
323.15	0.215	743.567	0.557
323.15	0.314	738.52	0.564
323.15	0.4	734.4	0.57
323.15	0.498	729.786	0.577
323.15	0.597	725.316	0.584
323.15	0.707	720.436	0.591
323.15	0.799	716.426	0.597
323.15	0.9	712.195	0.603
323.15	0.951	710.215	0.606
323.15	1	708.28	0.607
