Measured thermophysical data. Speed-of-Sound Measurements in n-Nonane at Temperatures between 293.15 and 393.15 K and at Pressures up to 100 MPa
Source: Int. J. Thermophys., 2006, 10.1007/s10765-006-0079-5
Compound 1: nonane, C9H20, InChI=1S/C9H20/c1-3-5-7-9-8-6-4-2/h3-9H2,1-2H3, purity 99.6%

System: nonane; phases: Liquid
Property: Speed of sound, m/s (Liquid); method: Pulse-echo method
Pressure, kPa	Temperature, K	Speed of sound, m/s	uncertainty
100	293.15	1226.379	4.971
100	313.15	1146.226	4.652
100	333.15	1068.198	4.34
100	353.15	992.6189	4.0374
100	373.15	922.1599	3.7527
100	393.15	867.4314	3.532
10000	293.15	1288.02	5.22
10000	313.15	1212.824	4.915
10000	333.15	1140.94	4.63
10000	353.15	1072.568	4.354
10000	373.15	1004.987	4.083
10000	393.15	946.865	3.85
20000	293.15	1344.821	5.441
20000	313.15	1274.241	5.16
20000	333.15	1206.915	4.89
20000	353.15	1142.609	4.633
20000	373.15	1081.282	4.388
20000	393.15	1022.924	4.155
30000	293.15	1396.854	5.649
30000	313.15	1329.834	5.382
30000	333.15	1266.203	5.127
30000	353.15	1205.597	4.884
30000	373.15	1148.091	4.654
30000	393.15	1093.674	4.438
40000	293.15	1445.084	5.842
40000	313.15	1380.943	5.586
40000	353.15	1262.461	5.113
40000	373.15	1207.979	4.894
40000	393.15	1156.595	4.69
50000	293.15	1490.057	6.023
50000	313.15	1428.288	5.776
50000	333.15	1369.835	5.543
50000	353.15	1314.591	5.321
50000	373.15	1262.528	5.113
50000	393.15	1213.59	4.92
60000	293.15	1532.464	6.193
60000	313.15	1472.742	5.954
60000	333.15	1416.313	5.729
60000	353.15	1363.169	5.516
60000	373.15	1313.133	5.316
60000	393.15	1266.136	5.129
70000	293.15	1572.512	6.354
70000	313.15	1514.719	6.123
70000	333.15	1460.059	5.904
70000	353.15	1408.501	5.698
70000	373.15	1360.053	5.505
70000	393.15	1314.71	5.32
80000	293.15	1610.591	6.507
80000	313.15	1554.351	6.282
80000	333.15	1501.308	6.07
80000	353.15	1451.316	5.87
80000	373.15	1404.349	5.683
80000	393.15	1360.387	5.508
90000	293.15	1646.928	6.653
90000	313.15	1592.049	6.434
90000	333.15	1540.349	6.227
90000	353.15	1491.697	6.032
90000	373.15	1446.071	5.85
90000	393.15	1403.307	5.68
100000	293.15	1681.563	6.792
100000	313.15	1628.026	6.579
100000	333.15	1577.369	6.377
100000	353.15	1529.841	6.187
100000	373.15	1485.463	6.01
100000	393.15	1443.653	5.843
