Measured thermophysical data. Temperature Dependence of the Velocity of Sound in Liquid Metals of Group XIV
Source: Int. J. Thermophys., 2007, 10.1007/s10765-007-0151-9
Compound 1: lead, Pb, InChI=1S/Pb
Compound 2: tin, Sn, InChI=1S/Sn
Compound 3: germanium, Ge, InChI=1S/Ge
Compound 4: silicon, Si, InChI=1S/Si

System: lead; phases: Liquid
Fixed: Pressure, kPa = 101.325
Property: Speed of sound, m/s (Liquid); method: Pulse-echo method
Temperature, K	Speed of sound, m/s	uncertainty
610	1834	30
626	1810.5	29.7
678	1790.3	29.4
703	1784	29
787	1769.8	29
814	1749	29
897	1729.8	28.4
1078	1688	28

System: tin; phases: Liquid
Fixed: Pressure, kPa = 101.325
Property: Speed of sound, m/s (Liquid); method: Pulse-echo method
Temperature, K	Speed of sound, m/s	uncertainty
608	2470	41
804	2408	40
814	2416	40
919	2379	39
1012	2366	39
1025	2332	38
1218	2306	38
1453	2234	37
1463	2242	37

System: germanium; phases: Liquid
Fixed: Pressure, kPa = 101.325
Property: Speed of sound, m/s (Liquid); method: Pulse-echo method
Temperature, K	Speed of sound, m/s	uncertainty
1216	2690.9	44.1
1216	2689.9	44.1
1233	2690.8	44.1
1233	2691.1	44.1
1252	2689.5	44.1
1252	2696.2	44.2
1270	2692	44
1270	2695	44
1289	2690.8	44.1
1289	2700.4	44.3
1307	2690.6	44.1
1307	2695	44
1352	2673.6	43.9
1352	2678.4	43.9
1398	2662.8	43.7
1398	2666.3	43.7
1443	2652.5	43.5
1443	2654.4	43.5

System: silicon; phases: Liquid
Fixed: Pressure, kPa = 101.325
Property: Speed of sound, m/s (Liquid); method: Pulse-echo method
Temperature, K	Speed of sound, m/s	uncertainty
1723	3916.1	64.2
1748	3929	64
1755	3945.9	64.7
1789	3973.3	65.2
1795	3969	65
1823	3976.3	65.2
1852	4003	66
1889	4020	66
