Measured thermophysical data. Phase Behavior of N2O and CO2 in Room-Temperature Ionic Liquids [bmim][Tf2N], [bmim][BF4], [bmim][N(CN)2], [bmim][Ac], [eam][NO3], and [bmim][SCN]
Source: Int. J. Thermophys., 2012, 10.1007/s10765-011-1150-4
Compound 1: nitrous oxide, N2O, InChI=1S/N2O/c1-2-3, purity 99.998%
Compound 2: carbon dioxide, CO2, InChI=1S/CO2/c2-1-3, purity 99.99%
Compound 3: 1-butyl-3-methylimidazolium bis(trifluoromethylsulfonyl)imide, C10H15F6N3O4S2, InChI=1S/C8H15N2.C2F6NO4S2/c1-3-4-5-10-7-6-9(2)8-10;3-1(4,5)14(10,11)9-15(12,13)2(6,7)8/h6-8H,3-5H2,1-2H3;/q+1;-1, purity 98%
Compound 4: 1-butyl-3-methylimidazolium dicyanamide, C10H15N5, InChI=1S/C8H15N2.C2N3/c1-3-4-5-10-7-6-9(2)8-10;3-1-5-2-4/h6-8H,3-5H2,1-2H3;/q+1;-1, purity 97%
Compound 5: 1-butyl-3-methylimidazolium acetate, C10H18N2O2, InChI=1S/C8H15N2.C2H4O2/c1-3-4-5-10-7-6-9(2)8-10;1-2(3)4/h6-8H,3-5H2,1-2H3;1H3,(H,3,4)/q+1;/p-1, purity 95%
Compound 6: 1-butyl-3-methylimidazolium thiocyanate, C9H15N3S, InChI=1S/C8H15N2.CHNS/c1-3-4-5-10-7-6-9(2)8-10;2-1-3/h6-8H,3-5H2,1-2H3;3H/q+1;/p-1, purity 95%
Compound 7: ethylammonium nitrate, C2H8N2O3, InChI=1S/C2H7N.NO3/c1-2-3;2-1(3)4/h2-3H2,1H3;/q;-1/p+1, purity 98%

System: nitrous oxide + 1-butyl-3-methylimidazolium bis(trifluoromethylsulfonyl)imide; phases: Liquid, Gas
Property: Mole fraction of nitrous oxide (Liquid); method: gravimetric
Temperature, K	Pressure, kPa	Mole fraction of nitrous oxide	uncertainty
283.1	25.7	0.005	0.005
283.2	50.1	0.015	0.006
283.2	75.1	0.022	0.006
283.2	100.4	0.03	0.006
283.1	125.4	0.039	0.006
283.1	150.4	0.047	0.006
283.2	250	0.081	0.006
283.1	500.8	0.161	0.006
283.1	750.3	0.235	0.006
283.1	1000.3	0.3	0.006
283.2	1250.1	0.357	0.006
283.1	1500.6	0.407	0.007
283.2	1750.2	0.449	0.007
283.1	1999.9	0.49	0.007
298.1	25.3	0.007	0.006
298.1	50	0.016	0.006
298.1	75.5	0.023	0.006
298.1	100.5	0.03	0.006
298.1	125.2	0.037	0.006
298.1	150.7	0.044	0.006
298.1	250.1	0.07	0.006
298.1	500.2	0.133	0.006
298.1	750.5	0.191	0.006
298.1	1001.3	0.242	0.006
298.1	1250.8	0.287	0.006
298.1	1500.2	0.33	0.006
298.1	1749.6	0.369	0.006
298.1	2000.4	0.404	0.006
323.1	25.6	0.004	0.004
323.1	50.5	0.009	0.006
323.2	75.4	0.014	0.006
323.1	100.4	0.019	0.006
323.1	125.4	0.023	0.006
323.1	150.2	0.029	0.006
323.2	250.1	0.047	0.006
323.1	500.5	0.093	0.006
323.1	750.5	0.134	0.006
323.1	999.9	0.171	0.006
323.1	1250.1	0.206	0.006
323.2	1499.5	0.237	0.006
323.1	1749.9	0.268	0.006
323.1	2000.6	0.299	0.006
348.2	25.3	0.002	0.002
348.1	50.2	0.005	0.005
348.2	75.2	0.009	0.006
348.1	100.4	0.012	0.006
348.1	125.2	0.015	0.006
348.1	150.4	0.02	0.006
348.1	250.4	0.032	0.006
347.9	500.6	0.067	0.006
347.8	749.9	0.096	0.006
347.6	999.9	0.127	0.006
347.6	1250.1	0.157	0.006
347.3	1499.9	0.181	0.006
347.4	1749.6	0.206	0.006
347.5	2000.2	0.225	0.006

System: nitrous oxide + 1-butyl-3-methylimidazolium bis(trifluoromethylsulfonyl)imide; phases: Liquid mixture 2, Liquid mixture 1, Gas
Property: Mole fraction of nitrous oxide (Liquid mixture 2); method: gravimetric
Temperature, K	Mole fraction of nitrous oxide	uncertainty
282.7	0.75	0.03
293.6	0.805	0.03

System: nitrous oxide + 1-butyl-3-methylimidazolium bis(trifluoromethylsulfonyl)imide; phases: Liquid mixture 1, Liquid mixture 2, Gas
Property: Mole fraction of nitrous oxide (Liquid mixture 1); method: gravimetric
Temperature, K	Mole fraction of nitrous oxide	uncertainty
282.7	0.999	0.001
293.6	0.999	0.001

System: nitrous oxide + 1-butyl-3-methylimidazolium dicyanamide; phases: Liquid, Gas
Property: Mole fraction of nitrous oxide (Liquid); method: gravimetric
Temperature, K	Pressure, kPa	Mole fraction of nitrous oxide	uncertainty
283.1	26.2	0.002	0.002
283.1	50.9	0.006	0.006
283.1	75.9	0.008	0.006
283.2	100.9	0.011	0.006
283.1	126.2	0.014	0.006
283.1	150.9	0.018	0.006
283.1	250	0.031	0.006
283.1	500	0.065	0.006
283.1	750.5	0.1	0.006
283.2	1001.2	0.134	0.006
283.2	1250.4	0.166	0.006
283.1	1500	0.193	0.006
283.2	1750.2	0.22	0.006
283.1	2000.3	0.247	0.006
298.2	26.3	0.002	0.002
298.1	50.4	0.005	0.005
298.1	75.8	0.008	0.006
298.1	100.9	0.011	0.006
298.1	125.9	0.014	0.006
298.1	150.7	0.016	0.006
298.1	250.4	0.027	0.006
298.1	500.3	0.054	0.006
298.1	750.4	0.081	0.006
298.1	1000.8	0.105	0.006
298.1	1250.8	0.129	0.006
298.1	1500.6	0.151	0.006
298.1	1750.7	0.173	0.006
298.1	2000.4	0.194	0.006
323.1	25.8	0.003	0.003
323.1	50.2	0.006	0.006
323.1	75.1	0.008	0.006
323.2	101.2	0.01	0.006
323.2	125.2	0.012	0.006
323.1	150.9	0.014	0.006
323.2	250.3	0.022	0.006
323.2	501	0.04	0.006
323.1	750	0.058	0.006
323.2	1000.4	0.074	0.006
323.1	1250.2	0.09	0.006
323.2	1499.8	0.106	0.006
323.2	1750	0.122	0.006
323.1	1999.8	0.139	0.006
348.1	25.1	0.001	0.001
348.1	50.1	0.003	0.003
347.9	75.1	0.004	0.004
347.8	100.1	0.006	0.006
347.7	125.2	0.007	0.006
347.8	150.4	0.008	0.006
347.8	250.6	0.013	0.006
347.6	500.1	0.028	0.006
347.5	750.3	0.04	0.006
347.4	1000.4	0.051	0.006
347.4	1250.3	0.067	0.006
347.2	1499.7	0.079	0.006
347.3	1750.3	0.093	0.006
347.4	2000	0.103	0.006

System: nitrous oxide + 1-butyl-3-methylimidazolium dicyanamide; phases: Liquid mixture 1, Liquid mixture 2, Gas
Property: Mole fraction of nitrous oxide (Liquid mixture 1); method: gravimetric
Temperature, K	Mole fraction of nitrous oxide	uncertainty
283.2	0.403	0.02
298.2	0.4	0.02

System: nitrous oxide + 1-butyl-3-methylimidazolium dicyanamide; phases: Liquid mixture 2, Liquid mixture 1, Gas
Property: Mole fraction of nitrous oxide (Liquid mixture 2); method: gravimetric
Temperature, K	Mole fraction of nitrous oxide	uncertainty
283.2	0.999	0.001
298.2	0.999	0.001

System: nitrous oxide + ethylammonium nitrate; phases: Liquid, Gas
Property: Mole fraction of nitrous oxide (Liquid); method: gravimetric
Temperature, K	Pressure, kPa	Mole fraction of nitrous oxide	uncertainty
283.1	10.7	0	
283.1	26.3	0.001	0.001
283.1	51.2	0.002	0.002
283.2	76.2	0.003	0.003
283.1	101.1	0.003	0.003
283.1	125.9	0.004	0.004
283.1	150.8	0.005	0.005
283.2	250.1	0.009	0.006
283.1	500.6	0.02	0.006
283.1	750.3	0.031	0.006
283.1	999	0.043	0.006
283.2	1250.8	0.054	0.006
283.1	1500.7	0.065	0.006
283.1	1749.7	0.074	0.006
283.1	2000.7	0.084	0.006
298.2	11	0	
298.1	25.3	0.001	0.001
298.1	50.4	0.002	0.002
298.1	75.1	0.002	0.002
298.1	100.3	0.003	0.003
298.1	125.1	0.004	0.004
298.1	150	0.005	0.005
298.1	250	0.008	0.006
298.1	500	0.016	0.006
298.1	750.3	0.025	0.006
298.1	1000.9	0.033	0.006
298.1	1251.5	0.04	0.006
298.1	1500	0.048	0.006
298.1	1750.4	0.056	0.006
298.1	1999.9	0.063	0.006
323.2	25.2	0	
323.1	50.1	0.001	0.001
323.1	75.2	0.001	0.001
323.1	100.4	0.002	0.002
323.1	125.3	0.003	0.003
323.1	150.4	0.003	0.003
323.1	250.3	0.005	0.005
323.1	500.3	0.011	0.006
323.1	750.3	0.016	0.006
323.2	1000.7	0.021	0.006
323.1	1250.1	0.026	0.006
323.1	1500.5	0.031	0.006
323.2	1750.7	0.036	0.006
323.1	2000.6	0.043	0.006
348.1	50.4	0	
348.1	75.7	0	
348	100.2	0	
347.8	125	0.001	0.001
347.9	150.2	0.001	0.001
347.8	250.5	0.002	0.002
347.6	499.8	0.007	0.006
347.4	749.9	0.01	0.006
347.3	999.8	0.014	0.006
347.4	1250.3	0.018	0.006
347.5	1499.6	0.022	0.006
347.5	1750.2	0.025	0.006
347.3	2000.9	0.028	0.006

System: nitrous oxide + ethylammonium nitrate; phases: Liquid mixture 2, Liquid mixture 1, Gas
Property: Mole fraction of nitrous oxide (Liquid mixture 2); method: gravimetric
Temperature, K	Mole fraction of nitrous oxide	uncertainty
298.2	0.2	0.01
310.2	0.178	0.01

System: nitrous oxide + ethylammonium nitrate; phases: Liquid mixture 1, Liquid mixture 2, Gas
Property: Mole fraction of nitrous oxide (Liquid mixture 1); method: gravimetric
Temperature, K	Mole fraction of nitrous oxide	uncertainty
298.2	0.999	0.001
310.2	0.999	0.001

System: carbon dioxide + ethylammonium nitrate; phases: Liquid, Gas
Property: Mole fraction of carbon dioxide (Liquid); method: gravimetric
Temperature, K	Pressure, kPa	Mole fraction of carbon dioxide	uncertainty
283.1	11.9	0.001	0.001
283.1	50.7	0.003	0.003
283.1	100.9	0.007	0.006
283.1	250.9	0.017	0.006
283.1	500.4	0.034	0.006
283.1	750.5	0.052	0.006
283.1	1000.5	0.068	0.006
283.1	1250.1	0.084	0.006
283.2	1500.2	0.1	0.006
283.1	1750.6	0.115	0.006
283.1	1999.9	0.129	0.006
298.1	50.8	0.002	0.002
298.1	100.7	0.005	0.005
298.1	250.7	0.012	0.006
298.1	500.9	0.024	0.006
298.2	751.9	0.036	0.006
298.1	1000.7	0.048	0.006
298.1	1251.2	0.059	0.006
298.1	1500.1	0.07	0.006
298.1	1750.5	0.081	0.006
298.1	2000.7	0.092	0.006
323.1	50.3	0.001	0.001
323.2	100.8	0.003	0.003
323.1	250.4	0.008	0.006
323.2	501	0.015	0.006
323.2	751.4	0.022	0.006
323.2	1000.3	0.03	0.006
323.2	1250.8	0.036	0.006
323.2	1500.2	0.043	0.006
323.2	1750.6	0.05	0.006
323.1	1999.6	0.056	0.006
348.2	250.9	0.003	0.003
348.1	500.2	0.008	0.006
348.1	750	0.013	0.006
348.1	999.8	0.017	0.006
348.1	1249.7	0.022	0.006
348	1500.5	0.026	0.006
348	1749.7	0.031	0.006
347.9	1999.1	0.036	0.006

System: carbon dioxide + ethylammonium nitrate; phases: Liquid mixture 1, Liquid mixture 2, Gas
Property: Mole fraction of carbon dioxide (Liquid mixture 1); method: gravimetric
Temperature, K	Mole fraction of carbon dioxide	uncertainty
293.3	0.269	0.04

System: carbon dioxide + ethylammonium nitrate; phases: Liquid mixture 2, Liquid mixture 1, Gas
Property: Mole fraction of carbon dioxide (Liquid mixture 2); method: gravimetric
Temperature, K	Mole fraction of carbon dioxide	uncertainty
293.3	1	

System: carbon dioxide + 1-butyl-3-methylimidazolium acetate; phases: Liquid, Gas
Property: Mole fraction of carbon dioxide (Liquid); method: gravimetric method
Temperature, K	Pressure, kPa	Mole fraction of carbon dioxide	uncertainty
283.1	999.3	0.416	0.007
283.1	1301.6	0.449	0.007
283	1499.9	0.467	0.007
283.1	1999.9	0.511	0.007

System: nitrous oxide + 1-butyl-3-methylimidazolium thiocyanate; phases: Liquid, Gas
Fixed: Temperature, K = 298.1
Property: Mole fraction of nitrous oxide (Liquid); method: gravimetric method
Pressure, kPa	Mole fraction of nitrous oxide	uncertainty
10.1	0.002	0.002
50.2	0.007	0.006
100.2	0.012	0.006
400.4	0.04	0.006
699.9	0.067	0.006
1000.5	0.093	0.006
1300.8	0.119	0.006
1499.9	0.14	0.006
2000.2	0.178	0.006

System: carbon dioxide + 1-butyl-3-methylimidazolium thiocyanate; phases: Liquid, Gas
Property: Mole fraction of carbon dioxide (Liquid); method: gravimetric method
Temperature, K	Pressure, kPa	Mole fraction of carbon dioxide	uncertainty
298.1	11.3	0.001	0.001
298.1	25.6	0.002	0.002
298.1	50.2	0.005	0.005
298.1	75.1	0.007	0.006
298.1	100.4	0.008	0.006
298.1	125.7	0.01	0.006
298.1	150.9	0.012	0.006
298.1	250.3	0.019	0.006
298.1	500.4	0.038	0.006
298.1	750.3	0.056	0.006
298.1	1000.5	0.074	0.006
298.1	1251.5	0.09	0.006
298.1	1500.3	0.107	0.006
298.1	1750.8	0.122	0.006
298.2	2000.7	0.138	0.006
