Measured thermophysical data. Solvation Behavior of Glycine, l-Alanine, and l-Valine in Aqueous Solutions of Triammonium Citrate at Different Temperatures with Reference to Speeds of Sound Measurements
Source: Int. J. Thermophys., 2016, 10.1007/s10765-015-2006-0
Compound 1: 2-aminoacetic acid, C2H5NO2, InChI=1S/C2H5NO2/c3-1-2(4)5/h1,3H2,(H,4,5), purity 99%
Compound 2: (S)-2-aminopropanoic acid, C3H7NO2, InChI=1S/C3H7NO2/c1-2(4)3(5)6/h2H,4H2,1H3,(H,5,6)/t2-/m0/s1, purity 99%
Compound 3: L-valine, C5H11NO2, InChI=1S/C5H11NO2/c1-3(2)4(6)5(7)8/h3-4H,6H2,1-2H3,(H,7,8)/t4-/m0/s1, purity 99%
Compound 4: ammonium 2-hydroxypropane-1,2,3-tricarboxylate, C6H17N3O7, InChI=1S/C6H8O7.3H3N/c7-3(8)1-6(13,5(11)12)2-4(9)10;;;/h13H,1-2H2,(H,7,8)(H,9,10)(H,11,12);3*1H3, purity 99%
Compound 5: water, H2O, InChI=1S/H2O/h1H2

System: water; phases: Liquid
Fixed: Pressure, kPa = 101
Fixed: Frequency, MHz = 3
Property: Speed of sound, m/s (Liquid); method: Sing-around technique in a fixed-path interferometer
Temperature, K	Speed of sound, m/s	uncertainty
288.15	1463.12	3.36
298.15	1495.85	3.36
308.15	1519.14	3.37
318.15	1536.14	3.37

System: 2-aminoacetic acid + ammonium 2-hydroxypropane-1,2,3-tricarboxylate + water; phases: Liquid
Fixed: Pressure, kPa = 101
Fixed: Frequency, MHz = 3
Property: Speed of sound, m/s (Liquid); method: Sing-around technique in a fixed-path interferometer
Solvent: Molality, mol/kg of ammonium 2-hydroxypropane-1,2,3-tricarboxylate	Temperature, K	Molality, mol/kg of 2-aminoacetic acid	Speed of sound, m/s	uncertainty
0	288.15	0	1463.12	3.36
0	288.15	0.01207	1467.22	3.36
0	288.15	0.0523	1470.11	3.36
0	288.15	0.10374	1472.31	3.36
0	288.15	0.20373	1477.81	3.36
0	288.15	0.30678	1483.4	3.36
0	288.15	0.41239	1488.71	3.36
0	288.15	0.50277	1494.55	3.36
0	288.15	0.60576	1499.19	3.36
0	288.15	0.68289	1503.36	3.36
0	288.15	0.82001	1510.15	3.36
0	298.15	0	1495.85	3.36
0	298.15	0.01207	1497.66	3.36
0	298.15	0.0523	1500.06	3.36
0	298.15	0.10374	1502.3	3.36
0	298.15	0.20373	1507.23	3.36
0	298.15	0.30678	1512.44	3.36
0	298.15	0.41239	1517.75	3.37
0	298.15	0.50277	1522.96	3.37
0	298.15	0.60576	1527.31	3.37
0	298.15	0.68289	1531.34	3.37
0	298.15	0.82001	1537.66	3.37
0	308.15	0	1519.14	3.37
0	308.15	0.01207	1519.97	3.37
0	308.15	0.0523	1522.89	3.37
0	308.15	0.10374	1524.73	3.37
0	308.15	0.20373	1529.67	3.37
0	308.15	0.30678	1534.58	3.37
0	308.15	0.41239	1539.71	3.37
0	308.15	0.50277	1543.76	3.37
0	308.15	0.60576	1548.68	3.37
0	308.15	0.68289	1552.54	3.37
0	308.15	0.82001	1558.57	3.37
0	318.15	0	1536.14	3.37
0	318.15	0.01207	1537.18	3.37
0	318.15	0.0523	1538.94	3.37
0	318.15	0.10374	1541.13	3.37
0	318.15	0.20373	1545.8	3.37
0	318.15	0.30678	1551.38	3.37
0	318.15	0.41239	1555.38	3.37
0	318.15	0.50277	1560.21	3.37
0	318.15	0.60576	1564.06	3.37
0	318.15	0.68289	1567.69	3.37
0	318.15	0.82001	1573.49	3.37
0.2	288.15	0	1503.56	3.36
0.2	288.15	0.02041	1504.63	3.36
0.2	288.15	0.05356	1507.15	3.36
0.2	288.15	0.09929	1508.43	3.36
0.2	288.15	0.20084	1514.15	3.36
0.2	288.15	0.301	1519.85	3.37
0.2	288.15	0.40014	1524.07	3.37
0.2	288.15	0.50129	1530.31	3.37
0.2	288.15	0.60299	1535.25	3.37
0.2	288.15	0.69399	1539.17	3.37
0.2	288.15	0.79567	1544.76	3.37
0.2	298.15	0	1532.21	3.37
0.2	298.15	0.02041	1533.36	3.37
0.2	298.15	0.05356	1535.82	3.37
0.2	298.15	0.09929	1536.68	3.37
0.2	298.15	0.20084	1541.83	3.37
0.2	298.15	0.301	1547.75	3.37
0.2	298.15	0.40014	1551.3	3.37
0.2	298.15	0.50129	1557.43	3.37
0.2	298.15	0.60299	1562	3.37
0.2	298.15	0.69399	1565.36	3.37
0.2	298.15	0.79567	1570.91	3.37
0.2	308.15	0	1553.79	3.37
0.2	308.15	0.02041	1555.08	3.37
0.2	308.15	0.05356	1557.22	3.37
0.2	308.15	0.09929	1558.13	3.37
0.2	308.15	0.20084	1563.03	3.37
0.2	308.15	0.301	1568.64	3.37
0.2	308.15	0.40014	1571.96	3.37
0.2	308.15	0.50129	1577.84	3.37
0.2	308.15	0.60299	1582.08	3.37
0.2	308.15	0.69399	1585.24	3.37
0.2	308.15	0.79567	1590.48	3.37
0.2	318.15	0	1569.04	3.37
0.2	318.15	0.02041	1570.64	3.37
0.2	318.15	0.05356	1572.93	3.37
0.2	318.15	0.09929	1573.51	3.37
0.2	318.15	0.20084	1578.23	3.37
0.2	318.15	0.301	1583.23	3.37
0.2	318.15	0.40014	1586.7	3.37
0.2	318.15	0.50129	1592.01	3.37
0.2	318.15	0.60299	1595.94	3.37
0.2	318.15	0.69399	1599.35	3.37
0.2	318.15	0.79567	1603.87	3.37
0.4	288.15	0	1540.7	3.37
0.4	288.15	0.01428	1542.12	3.37
0.4	288.15	0.05389	1543.93	3.37
0.4	288.15	0.10587	1546.34	3.37
0.4	288.15	0.19742	1552.11	3.37
0.4	288.15	0.30774	1557.76	3.37
0.4	288.15	0.39859	1561.49	3.37
0.4	288.15	0.51585	1566.99	3.37
0.4	288.15	0.59534	1572.1	3.37
0.4	288.15	0.69417	1575.58	3.37
0.4	288.15	0.79576	1581.15	3.37
0.4	298.15	0	1567.5	3.37
0.4	298.15	0.01428	1569.15	3.37
0.4	298.15	0.05389	1570.6	3.37
0.4	298.15	0.10587	1573.27	3.37
0.4	298.15	0.19742	1578.5	3.37
0.4	298.15	0.30774	1583.82	3.37
0.4	298.15	0.39859	1586.79	3.37
0.4	298.15	0.51585	1592.13	3.37
0.4	298.15	0.59534	1597.03	3.37
0.4	298.15	0.69417	1600	3.37
0.4	298.15	0.79576	1605.11	3.37
0.4	308.15	0	1587.7	3.37
0.4	308.15	0.01428	1589.45	3.37
0.4	308.15	0.05389	1590.77	3.37
0.4	308.15	0.10587	1593.25	3.37
0.4	308.15	0.19742	1598.31	3.37
0.4	308.15	0.30774	1603.27	3.37
0.4	308.15	0.39859	1605.85	3.37
0.4	308.15	0.51585	1611.13	3.37
0.4	308.15	0.59534	1615.8	3.37
0.4	308.15	0.69417	1618.38	3.37
0.4	308.15	0.79576	1623.18	3.37
0.4	318.15	0	1602.09	3.37
0.4	318.15	0.01428	1603.71	3.37
0.4	318.15	0.05389	1605.09	3.37
0.4	318.15	0.10587	1607.16	3.37
0.4	318.15	0.19742	1612.11	3.37
0.4	318.15	0.30774	1616.65	3.37
0.4	318.15	0.39859	1619.29	3.37
0.4	318.15	0.51585	1624.42	3.37
0.4	318.15	0.59534	1628.95	3.37
0.4	318.15	0.69417	1631.35	3.37
0.4	318.15	0.79576	1635.92	3.37
0.6	288.15	0	1578.53	3.37
0.6	288.15	0.01622	1578.79	3.37
0.6	288.15	0.049	1579.05	3.37
0.6	288.15	0.10617	1582.26	3.37
0.6	288.15	0.20513	1587.13	3.37
0.6	288.15	0.30942	1593.14	3.37
0.6	288.15	0.40094	1597.05	3.37
0.6	288.15	0.50286	1603.7	3.37
0.6	288.15	0.60305	1607.9	3.37
0.6	288.15	0.69171	1611.95	3.37
0.6	288.15	0.79133	1616.67	3.37
0.6	298.15	0	1603.26	3.37
0.6	298.15	0.01622	1603.78	3.37
0.6	298.15	0.049	1604.22	3.37
0.6	298.15	0.10617	1606.7	3.37
0.6	298.15	0.20513	1611.27	3.37
0.6	298.15	0.30942	1617.12	3.37
0.6	298.15	0.40094	1620.51	3.37
0.6	298.15	0.50286	1627.04	3.37
0.6	298.15	0.60305	1630.82	3.37
0.6	298.15	0.69171	1634.59	3.37
0.6	298.15	0.79133	1639.04	3.37
0.6	308.15	0	1621.95	3.37
0.6	308.15	0.01622	1622.45	3.37
0.6	308.15	0.049	1622.9	3.37
0.6	308.15	0.10617	1625.14	3.37
0.6	308.15	0.20513	1629.45	3.37
0.6	308.15	0.30942	1634.81	3.37
0.6	308.15	0.40094	1638.26	3.37
0.6	308.15	0.50286	1644.44	3.37
0.6	308.15	0.60305	1647.98	3.37
0.6	308.15	0.69171	1651.41	3.38
0.6	308.15	0.79133	1655.62	3.38
0.6	318.15	0	1635.2	3.37
0.6	318.15	0.01622	1635.98	3.37
0.6	318.15	0.049	1636.45	3.37
0.6	318.15	0.10617	1638.18	3.37
0.6	318.15	0.20513	1642.25	3.37
0.6	318.15	0.30942	1647.32	3.37
0.6	318.15	0.40094	1650.65	3.38
0.6	318.15	0.50286	1656.3	3.38
0.6	318.15	0.60305	1660.02	3.38
0.6	318.15	0.69171	1662.91	3.38
0.6	318.15	0.79133	1665.94	3.38
0.8	288.15	0	1615.6	3.37
0.8	288.15	0.01141	1615.95	3.37
0.8	288.15	0.05877	1619.41	3.37
0.8	288.15	0.10806	1619.99	3.37
0.8	288.15	0.21666	1626.47	3.37
0.8	288.15	0.30889	1630.68	3.37
0.8	288.15	0.38068	1635.15	3.37
0.8	288.15	0.49749	1640.03	3.37
0.8	288.15	0.59958	1644.79	3.37
0.8	288.15	0.70557	1650.36	3.38
0.8	288.15	0.79675	1654.72	3.38
0.8	298.15	0	1638.6	3.37
0.8	298.15	0.01141	1638.96	3.37
0.8	298.15	0.05877	1642.34	3.37
0.8	298.15	0.10806	1643.03	3.37
0.8	298.15	0.21666	1648.35	3.37
0.8	298.15	0.30889	1652.78	3.38
0.8	298.15	0.38068	1656.51	3.38
0.8	298.15	0.49749	1661.39	3.38
0.8	298.15	0.59958	1665.33	3.38
0.8	298.15	0.70557	1671.1	3.38
0.8	298.15	0.79675	1674.69	3.38
0.8	308.15	0	1655.72	3.38
0.8	308.15	0.01141	1656.45	3.38
0.8	308.15	0.05877	1659.35	3.38
0.8	308.15	0.10806	1659.97	3.38
0.8	308.15	0.21666	1664.91	3.38
0.8	308.15	0.30889	1669.12	3.38
0.8	308.15	0.38068	1672.67	3.38
0.8	308.15	0.49749	1677.2	3.38
0.8	308.15	0.59958	1680.9	3.38
0.8	308.15	0.70557	1686.49	3.38
0.8	308.15	0.79675	1689.62	3.38
0.8	318.15	0	1667.58	3.38
0.8	318.15	0.01141	1667.89	3.38
0.8	318.15	0.05877	1670.92	3.38
0.8	318.15	0.10806	1671.46	3.38
0.8	318.15	0.21666	1676.38	3.38
0.8	318.15	0.30889	1680.26	3.38
0.8	318.15	0.38068	1683.93	3.38
0.8	318.15	0.49749	1687.95	3.38
0.8	318.15	0.59958	1691.69	3.38
0.8	318.15	0.70557	1697.15	3.38
0.8	318.15	0.79675	1699.91	3.38

System: (S)-2-aminopropanoic acid + ammonium 2-hydroxypropane-1,2,3-tricarboxylate + water; phases: Liquid
Fixed: Pressure, kPa = 101
Fixed: Frequency, MHz = 3
Property: Speed of sound, m/s (Liquid); method: Sing-around technique in a fixed-path interferometer
Solvent: Molality, mol/kg of ammonium 2-hydroxypropane-1,2,3-tricarboxylate	Temperature, K	Molality, mol/kg of (S)-2-aminopropanoic acid	Speed of sound, m/s	uncertainty
0	288.15	0	1463.12	3.36
0	288.15	0.00939	1467.58	3.36
0	288.15	0.04689	1469.87	3.36
0	288.15	0.09896	1472.83	3.36
0	288.15	0.20034	1480.3	3.36
0	288.15	0.29792	1487.26	3.36
0	288.15	0.39972	1494.31	3.36
0	288.15	0.49412	1500.32	3.36
0	288.15	0.60987	1509.48	3.36
0	288.15	0.69727	1513.29	3.36
0	288.15	0.79784	1519.96	3.37
0	298.15	0	1495.85	3.36
0	298.15	0.00939	1497.91	3.36
0	298.15	0.04689	1499.77	3.36
0	298.15	0.09896	1502.78	3.36
0	298.15	0.20034	1509.6	3.36
0	298.15	0.29792	1515.94	3.37
0	298.15	0.39972	1522.71	3.37
0	298.15	0.49412	1527.97	3.37
0	298.15	0.60987	1536.72	3.37
0	298.15	0.69727	1540.38	3.37
0	298.15	0.79784	1546.17	3.37
0	308.15	0	1519.14	3.37
0	308.15	0.00939	1520.75	3.37
0	308.15	0.04689	1522.65	3.37
0	308.15	0.09896	1525.49	3.37
0	308.15	0.20034	1531.82	3.37
0	308.15	0.29792	1537.92	3.37
0	308.15	0.39972	1544.05	3.37
0	308.15	0.49412	1549	3.37
0	308.15	0.60987	1556.78	3.37
0	308.15	0.69727	1560.74	3.37
0	308.15	0.79784	1566.04	3.37
0	318.15	0	1536.14	3.37
0	318.15	0.00939	1536.95	3.37
0	318.15	0.04689	1539.23	3.37
0	318.15	0.09896	1542.03	3.37
0	318.15	0.20034	1547.94	3.37
0	318.15	0.29792	1553.19	3.37
0	318.15	0.39972	1558.73	3.37
0	318.15	0.49412	1564.07	3.37
0	318.15	0.60987	1571.44	3.37
0	318.15	0.69727	1574.73	3.37
0	318.15	0.79784	1611.92	3.37
0.2	288.15	0	1503.56	3.36
0.2	288.15	0.01698	1505.72	3.36
0.2	288.15	0.05142	1508.44	3.36
0.2	288.15	0.10285	1511.32	3.36
0.2	288.15	0.19923	1517.95	3.37
0.2	288.15	0.30451	1524.01	3.37
0.2	288.15	0.40777	1531.23	3.37
0.2	288.15	0.49942	1537.08	3.37
0.2	288.15	0.59285	1543.77	3.37
0.2	288.15	0.70311	1549.88	3.37
0.2	288.15	0.79821	1556.14	3.37
0.2	298.15	0	1532.21	3.37
0.2	298.15	0.01698	1534.16	3.37
0.2	298.15	0.05142	1537.11	3.37
0.2	298.15	0.10285	1539.38	3.37
0.2	298.15	0.19923	1545.95	3.37
0.2	298.15	0.30451	1551.17	3.37
0.2	298.15	0.40777	1557.82	3.37
0.2	298.15	0.49942	1563.14	3.37
0.2	298.15	0.59285	1569.75	3.37
0.2	298.15	0.70311	1575.02	3.37
0.2	298.15	0.79821	1581.13	3.37
0.2	308.15	0	1553.79	3.37
0.2	308.15	0.01698	1555.77	3.37
0.2	308.15	0.05142	1558.67	3.37
0.2	308.15	0.10285	1560.53	3.37
0.2	308.15	0.19923	1566.91	3.37
0.2	308.15	0.30451	1571.66	3.37
0.2	308.15	0.40777	1577.7	3.37
0.2	308.15	0.49942	1582.77	3.37
0.2	308.15	0.59285	1589.02	3.37
0.2	308.15	0.70311	1593.86	3.37
0.2	308.15	0.79821	1599.6	3.37
0.2	318.15	0	1569.04	3.37
0.2	318.15	0.01698	1571.23	3.37
0.2	318.15	0.05142	1573.69	3.37
0.2	318.15	0.10285	1575.7	3.4
0.2	318.15	0.19923	1581.57	3.37
0.2	318.15	0.30451	1586.17	3.37
0.2	318.15	0.40777	1591.43	3.37
0.2	318.15	0.49942	1596.58	3.37
0.2	318.15	0.59285	1601.94	3.37
0.2	318.15	0.70311	1607.02	3.37
0.2	318.15	0.79821	1612.13	3.37
0.4	288.15	0	1540.7	3.37
0.4	288.15	0.01167	1542.84	3.37
0.4	288.15	0.05105	1545.52	3.37
0.4	288.15	0.09899	1547.74	3.37
0.4	288.15	0.20128	1553.19	3.37
0.4	288.15	0.30452	1561.03	3.37
0.4	288.15	0.41055	1567.8	3.4
0.4	288.15	0.49658	1573.62	3.37
0.4	288.15	0.59199	1579.07	3.37
0.4	288.15	0.69769	1585.52	3.37
0.4	288.15	0.80798	1592.81	3.37
0.4	298.15	0	1567.5	3.37
0.4	298.15	0.01167	1569.79	3.37
0.4	298.15	0.05105	1572.13	3.37
0.4	298.15	0.09899	1574.09	3.37
0.4	298.15	0.20128	1579.12	3.37
0.4	298.15	0.30452	1586.62	3.37
0.4	298.15	0.41055	1592.7	3.37
0.4	298.15	0.49658	1597.56	3.37
0.4	298.15	0.59199	1608.09	3.37
0.4	298.15	0.69769	1608.86	3.37
0.4	298.15	0.80798	1615.97	3.37
0.4	308.15	0	1587.7	3.37
0.4	308.15	0.01167	1590.01	3.37
0.4	308.15	0.05105	1592.08	3.37
0.4	308.15	0.09899	1593.51	3.37
0.4	308.15	0.20128	1598.57	3.37
0.4	308.15	0.30452	1605.58	3.37
0.4	308.15	0.41055	1610.95	3.37
0.4	308.15	0.49658	1615.65	3.37
0.4	308.15	0.59199	1620.86	3.37
0.4	308.15	0.69769	1626.2	3.37
0.4	308.15	0.80798	1632.9	3.37
0.4	318.15	0	1602.09	3.37
0.4	318.15	0.01167	1604.14	3.37
0.4	318.15	0.05105	1607.6	3.37
0.4	318.15	0.09899	1612.31	3.37
0.4	318.15	0.20128	1616.27	3.37
0.4	318.15	0.30452	1618.64	3.37
0.4	318.15	0.41055	1623.92	3.37
0.4	318.15	0.49658	1628.15	3.37
0.4	318.15	0.59199	1632.93	3.37
0.4	318.15	0.69769	1638.2	3.37
0.4	318.15	0.80798	1644.32	3.37
0.6	288.15	0	1578.53	3.37
0.6	288.15	0.0104	1579.89	3.37
0.6	288.15	0.05312	1581.54	3.37
0.6	288.15	0.09954	1583.95	3.37
0.6	288.15	0.20255	1590.55	3.37
0.6	288.15	0.29422	1596.47	3.37
0.6	288.15	0.39805	1602.68	3.37
0.6	288.15	0.50015	1609.08	3.37
0.6	288.15	0.60346	1615.67	3.37
0.6	288.15	0.70233	1621.74	3.37
0.6	288.15	0.79506	1625.06	3.37
0.6	298.15	0	1603.26	3.37
0.6	298.15	0.0104	1604.45	3.37
0.6	298.15	0.05312	1606.42	3.37
0.6	298.15	0.09954	1608.27	3.37
0.6	298.15	0.20255	1614.78	3.37
0.6	298.15	0.29422	1620.05	3.37
0.6	298.15	0.39805	1625.43	3.37
0.6	298.15	0.50015	1631.71	3.37
0.6	298.15	0.60346	1637.29	3.37
0.6	298.15	0.70233	1643.15	3.37
0.6	298.15	0.79506	1649.35	3.37
0.6	308.15	0	1621.95	3.37
0.6	308.15	0.0104	1622.98	3.37
0.6	308.15	0.05312	1624.95	3.37
0.6	308.15	0.09954	1626.56	3.37
0.6	308.15	0.20255	1632.66	3.37
0.6	308.15	0.29422	1637.49	3.37
0.6	308.15	0.39805	1642.58	3.37
0.6	308.15	0.50015	1643.39	3.37
0.6	308.15	0.60346	1649.54	3.37
0.6	308.15	0.70233	1654.13	3.38
0.6	308.15	0.79506	1660.35	3.38
0.6	318.15	0	1635.2	3.4
0.6	318.15	0.0104	1636.45	3.37
0.6	318.15	0.05312	1637.73	3.37
0.6	318.15	0.09954	1639.42	3.37
0.6	318.15	0.20255	1644.89	3.37
0.6	318.15	0.29422	1649.46	3.37
0.6	318.15	0.39805	1654.47	3.38
0.6	318.15	0.50015	1659.75	3.38
0.6	318.15	0.60346	1664.68	3.38
0.6	318.15	0.70233	1670.02	3.38
0.6	318.15	0.79506	1676.24	3.38
0.8	288.15	0	1615.6	3.37
0.8	288.15	0.01255	1616.84	3.37
0.8	288.15	0.04938	1619.31	3.37
0.8	288.15	0.09749	1622.65	3.37
0.8	288.15	0.19725	1628.91	3.37
0.8	288.15	0.27894	1634.87	3.37
0.8	288.15	0.40449	1641.22	3.37
0.8	288.15	0.50511	1647.18	3.37
0.8	288.15	0.59287	1652.86	3.38
0.8	288.15	0.71608	1659.75	3.38
0.8	288.15	0.82161	1665.99	3.38
0.8	298.15	0	1638.6	3.37
0.8	298.15	0.01255	1639.79	3.37
0.8	298.15	0.04938	1641.71	3.37
0.8	298.15	0.09749	1645.18	3.37
0.8	298.15	0.19725	1650.57	3.38
0.8	298.15	0.27894	1656.47	3.38
0.8	298.15	0.40449	1662.03	3.38
0.8	298.15	0.50511	1667.82	3.38
0.8	298.15	0.59287	1673.1	3.38
0.8	298.15	0.71608	1679.31	3.38
0.8	298.15	0.82161	1684.93	3.38
0.8	308.15	0	1655.72	3.38
0.8	308.15	0.01255	1656.41	3.38
0.8	308.15	0.04938	1658.64	3.38
0.8	308.15	0.09749	1661.82	3.38
0.8	308.15	0.19725	1666.91	3.38
0.8	308.15	0.27894	1672.16	3.38
0.8	308.15	0.40449	1677.59	3.38
0.8	308.15	0.50511	1682.92	3.38
0.8	308.15	0.59287	1687.89	3.38
0.8	308.15	0.71608	1693.47	3.38
0.8	308.15	0.82161	1698.94	3.38
0.8	318.15	0	1667.58	3.38
0.8	318.15	0.01255	1668.49	3.38
0.8	318.15	0.04938	1670.43	3.38
0.8	318.15	0.09749	1673.24	3.38
0.8	318.15	0.19725	1678.2	3.38
0.8	318.15	0.27894	1683.13	3.38
0.8	318.15	0.40449	1688.25	3.38
0.8	318.15	0.50511	1693	3.38
0.8	318.15	0.59287	1697.69	3.38
0.8	318.15	0.71608	1703.09	3.38
0.8	318.15	0.82161	1708.29	3.38

System: L-valine + ammonium 2-hydroxypropane-1,2,3-tricarboxylate + water; phases: Liquid
Fixed: Pressure, kPa = 101
Fixed: Frequency, MHz = 3
Property: Speed of sound, m/s (Liquid); method: Sing-around technique in a fixed-path interferometer
Solvent: Molality, mol/kg of ammonium 2-hydroxypropane-1,2,3-tricarboxylate	Temperature, K	Molality, mol/kg of L-valine	Speed of sound, m/s	uncertainty
0	288.15	0	1463.12	3.36
0	288.15	0.00555	1467.36	3.36
0	288.15	0.02398	1467.32	3.36
0	288.15	0.03504	1469.71	3.36
0	288.15	0.05824	1469.61	3.36
0	288.15	0.07873	1472.8	3.36
0	288.15	0.09938	1474.76	3.36
0	288.15	0.20678	1477	3.36
0	288.15	0.29923	1488.44	3.36
0	288.15	0.40172	1497.16	3.36
0	298.15	0	1495.85	3.36
0	298.15	0.00555	1497.46	3.36
0	298.15	0.02398	1497.38	3.36
0	298.15	0.03504	1499.59	3.36
0	298.15	0.05824	1499.73	3.36
0	298.15	0.07873	1502.41	3.36
0	298.15	0.09938	1504.39	3.36
0	298.15	0.20678	1506.17	3.36
0	298.15	0.29923	1516.64	3.37
0	298.15	0.40172	1524.76	3.37
0	308.15	0	1519.14	3.37
0	308.15	0.00555	1520.44	3.37
0	308.15	0.02398	1520.4	3.37
0	308.15	0.03504	1522.04	3.37
0	308.15	0.05824	1522.6	3.37
0	308.15	0.07873	1525.01	3.37
0	308.15	0.09938	1526.92	3.37
0	308.15	0.20678	1528.23	3.37
0	308.15	0.29923	1537.85	3.37
0	308.15	0.40172	1545.25	3.37
0	318.15	0	1536.14	3.37
0	318.15	0.00555	1537.11	3.37
0	318.15	0.02398	1537.41	3.37
0	318.15	0.03504	1538.69	3.37
0	318.15	0.05824	1538.99	3.37
0	318.15	0.07873	1541.24	3.37
0	318.15	0.09938	1542.71	3.37
0	318.15	0.20678	1544.38	3.37
0	318.15	0.29923	1552.47	3.37
0	318.15	0.40172	1560.36	3.37
0.2	288.15	0	1503.56	3.36
0.2	288.15	0.01015	1504.71	3.36
0.2	288.15	0.04832	1508.85	3.36
0.2	288.15	0.09956	1514.15	3.36
0.2	288.15	0.13948	1517.45	3.37
0.2	288.15	0.19878	1523.52	3.37
0.2	288.15	0.246613	1529.25	3.37
0.2	288.15	0.29713	1533.33	3.37
0.2	288.15	0.36375	1540.4	3.37
0.2	288.15	0.39509	1543.3	3.37
0.2	288.15	0.42753	1547.29	3.37
0.2	298.15	0	1532.21	3.37
0.2	298.15	0.01015	1533.14	3.37
0.2	298.15	0.04832	1537.53	3.37
0.2	298.15	0.09956	1541.68	3.37
0.2	298.15	0.13948	1544.73	3.37
0.2	298.15	0.19878	1550.82	3.37
0.2	298.15	0.246613	1555.65	3.37
0.2	298.15	0.29713	1559.13	3.37
0.2	298.15	0.36375	1565.65	3.37
0.2	298.15	0.39509	1568.14	3.37
0.2	298.15	0.42753	1572.22	3.37
0.2	308.15	0	1553.79	3.37
0.2	308.15	0.01015	1554.68	3.37
0.2	308.15	0.04832	1558.96	3.37
0.2	308.15	0.09956	1562.51	3.37
0.2	308.15	0.13948	1565.25	3.37
0.2	308.15	0.19878	1570.93	3.37
0.2	308.15	0.246613	1575.24	3.37
0.2	308.15	0.29713	1578.46	3.37
0.2	308.15	0.36375	1584.32	3.37
0.2	308.15	0.39509	1586.59	3.37
0.2	308.15	0.42753	1590.59	3.37
0.2	318.15	0	1569.04	3.37
0.2	318.15	0.01015	1570.16	3.37
0.2	318.15	0.04832	1573.81	3.37
0.2	318.15	0.09956	1577.35	3.37
0.2	318.15	0.13948	1579.85	3.37
0.2	318.15	0.19878	1584.65	3.37
0.2	318.15	0.246613	1588.67	3.37
0.2	318.15	0.29713	1591.9	3.37
0.2	318.15	0.36375	1596.9	3.37
0.2	318.15	0.39509	1599.27	3.37
0.2	318.15	0.42753	1602.96	3.37
0.4	288.15	0	1540.7	3.37
0.4	288.15	0.0059	1541.85	3.37
0.4	288.15	0.04176	1542.12	3.37
0.4	288.15	0.04765	1545.51	3.37
0.4	288.15	0.09995	1550.9	3.37
0.4	288.15	0.15337	1556.25	3.37
0.4	288.15	0.20016	1561.9	3.37
0.4	288.15	0.25168	1566.55	3.37
0.4	288.15	0.29888	1570.66	3.37
0.4	288.15	0.34664	1575.43	3.37
0.4	288.15	0.3732	1578.08	3.37
0.4	298.15	0	1567.5	3.37
0.4	298.15	0.0059	1568.35	3.37
0.4	298.15	0.04176	1569.06	3.37
0.4	298.15	0.04765	1571.68	3.37
0.4	298.15	0.09995	1577.04	3.37
0.4	298.15	0.15337	1581.41	3.37
0.4	298.15	0.20016	1587.17	3.37
0.4	298.15	0.25168	1590.91	3.37
0.4	298.15	0.29888	1594.99	3.37
0.4	298.15	0.34664	1598.79	3.37
0.4	298.15	0.3732	1601.57	3.37
0.4	308.15	0	1587.7	3.37
0.4	308.15	0.0059	1588.51	3.37
0.4	308.15	0.04176	1589.16	3.37
0.4	308.15	0.04765	1591.51	3.37
0.4	308.15	0.09995	1596.41	3.37
0.4	308.15	0.15337	1600.37	3.37
0.4	308.15	0.20016	1605.84	3.37
0.4	308.15	0.25168	1609.12	3.37
0.4	308.15	0.29888	1612.83	3.37
0.4	308.15	0.34664	1616.2	3.37
0.4	308.15	0.3732	1618.77	3.37
0.4	318.15	0	1602.09	3.37
0.4	318.15	0.0059	1602.84	3.37
0.4	318.15	0.04176	1604.11	3.37
0.4	318.15	0.04765	1605.55	3.37
0.4	318.15	0.09995	1609.68	3.37
0.4	318.15	0.15337	1613.64	3.37
0.4	318.15	0.20016	1618.6	3.37
0.4	318.15	0.25168	1621.72	3.37
0.4	318.15	0.29888	1624.8	3.37
0.4	318.15	0.34664	1628.08	3.37
0.4	318.15	0.3732	1630.17	3.37
0.6	288.15	0	1578.53	3.37
0.6	288.15	0.00627	1579.98	3.37
0.6	288.15	0.01102	1580.15	3.37
0.6	288.15	0.04875	1581.76	3.37
0.6	288.15	0.09875	1586.93	3.37
0.6	288.15	0.15937	1593.21	3.37
0.6	288.15	0.20068	1596.96	3.37
0.6	288.15	0.25061	1601.66	3.37
0.6	288.15	0.30202	1606.59	3.37
0.6	288.15	0.34861	1610.92	3.37
0.6	288.15	0.36536	1612.92	3.37
0.6	298.15	0	1603.26	3.37
0.6	298.15	0.00627	1604.51	3.37
0.6	298.15	0.01102	1604.89	3.37
0.6	298.15	0.04875	1606.49	3.37
0.6	298.15	0.09875	1611.25	3.37
0.6	298.15	0.15937	1616.48	3.37
0.6	298.15	0.20068	1620.31	3.37
0.6	298.15	0.25061	1624	3.37
0.6	298.15	0.30202	1628.93	3.37
0.6	298.15	0.34861	1632.31	3.37
0.6	298.15	0.36536	1634.2	3.37
0.6	308.15	0	1621.95	3.37
0.6	308.15	0.00627	1622.68	3.37
0.6	308.15	0.01102	1623.85	3.37
0.6	308.15	0.04875	1625.12	3.37
0.6	308.15	0.09875	1629.22	3.37
0.6	308.15	0.15937	1633.95	3.37
0.6	308.15	0.20068	1637.37	3.37
0.6	308.15	0.25061	1640.75	3.37
0.6	308.15	0.30202	1645.24	3.37
0.6	308.15	0.34861	1648.26	3.37
0.6	308.15	0.36536	1650.03	3.37
0.6	318.15	0	1635.2	3.37
0.6	318.15	0.00627	1636.45	3.37
0.6	318.15	0.01102	1637.12	3.37
0.6	318.15	0.04875	1638.45	3.37
0.6	318.15	0.09875	1641.41	3.37
0.6	318.15	0.15937	1646.02	3.37
0.6	318.15	0.20068	1648.84	3.37
0.6	318.15	0.25061	1652.21	3.38
0.6	318.15	0.30202	1656.1	3.38
0.6	318.15	0.34861	1659.02	3.38
0.6	318.15	0.36536	1660.66	3.38
0.8	288.15	0	1615.6	3.37
0.8	288.15	0.00272	1617.07	3.37
0.8	288.15	0.01032	1617.16	3.37
0.8	288.15	0.04955	1618.93	3.37
0.8	288.15	0.09919	1622	3.37
0.8	288.15	0.15566	1625.05	3.37
0.8	288.15	0.20232	1631.11	3.37
0.8	288.15	0.24767	1634.15	3.37
0.8	288.15	0.29958	1640.26	3.37
0.8	288.15	0.34684	1643.53	3.37
0.8	298.15	0	1638.6	3.37
0.8	298.15	0.00272	1639.89	3.37
0.8	298.15	0.01032	1640.15	3.37
0.8	298.15	0.04955	1641.39	3.37
0.8	298.15	0.09919	1644.57	3.37
0.8	298.15	0.15566	1646.84	3.37
0.8	298.15	0.20232	1652.77	3.38
0.8	298.15	0.24767	1654.96	3.38
0.8	298.15	0.29958	1661.12	3.38
0.8	298.15	0.34684	1663.92	3.38
0.8	308.15	0	1655.72	3.38
0.8	308.15	0.00272	1656.68	3.38
0.8	308.15	0.01032	1657.19	3.38
0.8	308.15	0.04955	1658.37	3.38
0.8	308.15	0.09919	1661.3	3.38
0.8	308.15	0.15566	1663.26	3.38
0.8	308.15	0.20232	1668.61	3.38
0.8	308.15	0.24767	1670.54	3.38
0.8	308.15	0.29958	1676.32	3.38
0.8	308.15	0.34684	1678.78	3.38
0.8	318.15	0	1667.58	3.38
0.8	318.15	0.00272	1668.51	3.38
0.8	318.15	0.01032	1668.98	3.38
0.8	318.15	0.04955	1669.44	3.38
0.8	318.15	0.09919	1670.26	3.38
0.8	318.15	0.15566	1672.7	3.38
0.8	318.15	0.20232	1674.54	3.38
0.8	318.15	0.24767	1679.24	3.38
0.8	318.15	0.29958	1681.14	3.38
0.8	318.15	0.34684	1688.47	3.38

System: 2-aminoacetic acid + water; phases: Liquid
Fixed: Pressure, kPa = 101
Fixed: Frequency, MHz = 3
Property: Speed of sound, m/s (Liquid); method: Sing-around technique in a fixed-path interferometer
Temperature, K	Molality, mol/kg of 2-aminoacetic acid	Speed of sound, m/s	uncertainty
288.15	0.01207	1467.22	3.36
288.15	0.0523	1470.11	3.36
288.15	0.10374	1472.31	3.36
288.15	0.20373	1477.81	3.36
288.15	0.30678	1483.4	3.36
288.15	0.41239	1488.71	3.36
288.15	0.50277	1494.55	3.36
288.15	0.60576	1499.19	3.36
288.15	0.68289	1503.36	3.36
288.15	0.82001	1510.15	3.36
298.15	0.01207	1497.66	3.36
298.15	0.0523	1500.06	3.36
298.15	0.10374	1502.3	3.36
298.15	0.20373	1507.23	3.36
298.15	0.30678	1512.44	3.36
298.15	0.41239	1517.75	3.37
298.15	0.50277	1522.96	3.37
298.15	0.60576	1527.31	3.37
298.15	0.68289	1531.34	3.37
298.15	0.82001	1537.66	3.37
308.15	0.01207	1519.97	3.37
308.15	0.0523	1522.89	3.37
308.15	0.10374	1524.73	3.37
308.15	0.20373	1529.67	3.37
308.15	0.30678	1534.58	3.37
308.15	0.41239	1539.71	3.37
308.15	0.50277	1543.76	3.37
308.15	0.60576	1548.68	3.37
308.15	0.68289	1552.54	3.37
308.15	0.82001	1558.57	3.37
318.15	0.01207	1537.18	3.37
318.15	0.0523	1538.94	3.37
318.15	0.10374	1541.13	3.37
318.15	0.20373	1545.8	3.37
318.15	0.30678	1551.38	3.37
318.15	0.41239	1555.38	3.37
318.15	0.50277	1560.21	3.37
318.15	0.60576	1564.06	3.37
318.15	0.68289	1567.69	3.37
318.15	0.82001	1573.49	3.37

System: ammonium 2-hydroxypropane-1,2,3-tricarboxylate + water; phases: Liquid
Fixed: Pressure, kPa = 101
Fixed: Frequency, MHz = 3
Property: Speed of sound, m/s (Liquid); method: Sing-around technique in a fixed-path interferometer
Molality, mol/kg of ammonium 2-hydroxypropane-1,2,3-tricarboxylate	Temperature, K	Speed of sound, m/s	uncertainty
0.2	288.15	1503.56	3.36
0.2	298.15	1532.21	3.37
0.2	308.15	1553.79	3.37
0.2	318.15	1569.04	3.37
0.4	288.15	1540.7	3.37
0.4	298.15	1567.5	3.37
0.4	308.15	1587.7	3.37
0.4	318.15	1602.09	3.37
0.6	288.15	1578.53	3.37
0.6	298.15	1603.26	3.37
0.6	308.15	1621.95	3.37
0.6	318.15	1635.2	3.37
0.8	288.15	1615.6	3.37
0.8	298.15	1638.6	3.37
0.8	308.15	1655.72	3.38
0.8	318.15	1667.58	3.38

System: (S)-2-aminopropanoic acid + water; phases: Liquid
Fixed: Pressure, kPa = 101
Fixed: Frequency, MHz = 3
Property: Speed of sound, m/s (Liquid); method: Sing-around technique in a fixed-path interferometer
Temperature, K	Molality, mol/kg of (S)-2-aminopropanoic acid	Speed of sound, m/s	uncertainty
288.15	0.00939	1467.58	3.36
288.15	0.04689	1469.87	3.36
288.15	0.09896	1472.83	3.36
288.15	0.20034	1480.3	3.36
288.15	0.29792	1487.26	3.36
288.15	0.39972	1494.31	3.36
288.15	0.49412	1500.32	3.36
288.15	0.60987	1509.48	3.36
288.15	0.69727	1513.29	3.36
288.15	0.79784	1519.96	3.37
298.15	0.00939	1497.91	3.36
298.15	0.04689	1499.77	3.36
298.15	0.09896	1502.78	3.36
298.15	0.20034	1509.6	3.36
298.15	0.29792	1515.94	3.37
298.15	0.39972	1522.71	3.37
298.15	0.49412	1527.97	3.37
298.15	0.60987	1536.72	3.37
298.15	0.69727	1540.38	3.37
298.15	0.79784	1546.17	3.37
308.15	0.00939	1520.75	3.37
308.15	0.04689	1522.65	3.37
308.15	0.09896	1525.49	3.37
308.15	0.20034	1531.82	3.37
308.15	0.29792	1537.92	3.37
308.15	0.39972	1544.05	3.37
308.15	0.49412	1549	3.37
308.15	0.60987	1556.78	3.37
308.15	0.69727	1560.74	3.37
308.15	0.79784	1566.04	3.37
318.15	0.00939	1536.95	3.37
318.15	0.04689	1539.23	3.37
318.15	0.09896	1542.03	3.37
318.15	0.20034	1547.94	3.37
318.15	0.29792	1553.19	3.37
318.15	0.39972	1558.73	3.37
318.15	0.49412	1564.07	3.37
318.15	0.60987	1571.44	3.37
318.15	0.69727	1574.73	3.37
318.15	0.79784	1611.92	3.37

System: L-valine + water; phases: Liquid
Fixed: Pressure, kPa = 101
Fixed: Frequency, MHz = 3
Property: Speed of sound, m/s (Liquid); method: Sing-around technique in a fixed-path interferometer
Temperature, K	Molality, mol/kg of L-valine	Speed of sound, m/s	uncertainty
288.15	0.00555	1467.36	3.36
288.15	0.02398	1467.32	3.36
288.15	0.03504	1469.71	3.36
288.15	0.05824	1469.61	3.36
288.15	0.07873	1472.8	3.36
288.15	0.09938	1474.76	3.36
288.15	0.20678	1477	3.36
288.15	0.29923	1488.44	3.36
288.15	0.40172	1497.16	3.36
298.15	0.00555	1497.46	3.36
298.15	0.02398	1497.38	3.36
298.15	0.03504	1499.59	3.36
298.15	0.05824	1499.73	3.36
298.15	0.07873	1502.41	3.36
298.15	0.09938	1504.39	3.36
298.15	0.20678	1506.17	3.36
298.15	0.29923	1516.64	3.37
298.15	0.40172	1524.76	3.37
308.15	0.00555	1520.44	3.37
308.15	0.02398	1520.4	3.37
308.15	0.03504	1522.04	3.37
308.15	0.05824	1522.6	3.37
308.15	0.07873	1525.01	3.37
308.15	0.09938	1526.92	3.37
308.15	0.20678	1528.23	3.37
308.15	0.29923	1537.85	3.37
308.15	0.40172	1545.25	3.37
318.15	0.00555	1537.11	3.37
318.15	0.02398	1537.41	3.37
318.15	0.03504	1538.69	3.37
318.15	0.05824	1538.99	3.37
318.15	0.07873	1541.24	3.37
318.15	0.09938	1542.71	3.37
318.15	0.20678	1544.38	3.37
318.15	0.29923	1552.47	3.37
318.15	0.40172	1560.36	3.37
