Measured thermophysical data. Thermophysical Properties For Diethylene Glycol + Nitrobenzene and Triethylene Glycol + (Chloro-, Bromo-, Nitro-) Benzene Systems at Different Temperatures
Source: Int. J. Thermophys., 2008, 10.1007/s10765-008-0399-8
Compound 1: diethylene glycol, C4H10O3, InChI=1S/C4H10O3/c5-1-3-7-4-2-6/h5-6H,1-4H2
Compound 2: triethylene glycol, C6H14O4, InChI=1S/C6H14O4/c7-1-3-9-5-6-10-4-2-8/h7-8H,1-6H2
Compound 3: chlorobenzene, C6H5Cl, InChI=1S/C6H5Cl/c7-6-4-2-1-3-5-6/h1-5H
Compound 4: bromobenzene, C6H5Br, InChI=1S/C6H5Br/c7-6-4-2-1-3-5-6/h1-5H
Compound 5: nitrobenzene, C6H5NO2, InChI=1S/C6H5NO2/c8-7(9)6-4-2-1-3-5-6/h1-5H

System: diethylene glycol; phases: Liquid
Fixed: Pressure, kPa = 101.325
Property: Viscosity, Pa*s (Liquid); method: CAPTUB:UFactor:8
Temperature, K	Viscosity, Pa*s	uncertainty
298.15	0.030012	0.000995
308.15	0.016972	0.00059

System: diethylene glycol; phases: Liquid
Fixed: Pressure, kPa = 101.325
Property: Speed of sound, m/s (Liquid); method: FPINT:UFactor:8
Temperature, K	Speed of sound, m/s	uncertainty
298.15	1580	6
308.15	1550	6

System: diethylene glycol; phases: Liquid
Fixed: Pressure, kPa = 101.325
Property: Mass density, kg/m3 (Liquid); method: VIBTUB:UFactor:16
Temperature, K	Mass density, kg/m3	uncertainty
298.15	1113.51	1.281
303.15	1109.56	1.256
308.15	1106.221	1.234
313.15	1103.021	1.214

System: triethylene glycol; phases: Liquid
Fixed: Pressure, kPa = 101.325
Property: Viscosity, Pa*s (Liquid); method: CAPTUB:UFactor:8
Temperature, K	Viscosity, Pa*s	uncertainty
298.15	0.030012	0.000995
308.15	0.016972	0.00059

System: triethylene glycol; phases: Liquid
Fixed: Pressure, kPa = 101.325
Property: Speed of sound, m/s (Liquid); method: FPINT:UFactor:8
Temperature, K	Speed of sound, m/s	uncertainty
298.15	1612	6
308.15	1586	6

System: triethylene glycol; phases: Liquid
Fixed: Pressure, kPa = 101.325
Property: Mass density, kg/m3 (Liquid); method: VIBTUB:UFactor:16
Temperature, K	Mass density, kg/m3	uncertainty
298.15	1119.59	1.32
303.15	1115.882	1.297
308.15	1111.96	1.271
313.15	1109.532	1.256

System: chlorobenzene; phases: Liquid
Fixed: Pressure, kPa = 101.325
Property: Viscosity, Pa*s (Liquid); method: CAPTUB:UFactor:8
Temperature, K	Viscosity, Pa*s	uncertainty
298.15	0.000755	4.3e-05
308.15	0.000679	4.1e-05

System: chlorobenzene; phases: Liquid
Fixed: Pressure, kPa = 101.325
Property: Speed of sound, m/s (Liquid); method: FPINT:UFactor:8
Temperature, K	Speed of sound, m/s	uncertainty
298.15	1269	6
308.15	1224	6

System: chlorobenzene; phases: Liquid
Fixed: Pressure, kPa = 101.325
Property: Mass density, kg/m3 (Liquid); method: VIBTUB:UFactor:16
Temperature, K	Mass density, kg/m3	uncertainty
298.15	1100.858	2.117
303.15	1095.459	2.073
308.15	1089.705	2.027
313.15	1084.683	1.986

System: bromobenzene; phases: Liquid
Fixed: Pressure, kPa = 101.325
Property: Viscosity, Pa*s (Liquid); method: CAPTUB:UFactor:8
Temperature, K	Viscosity, Pa*s	uncertainty
298.15	0.001041	5.3e-05
308.15	0.000964	5.1e-05

System: bromobenzene; phases: Liquid
Fixed: Pressure, kPa = 101.325
Property: Speed of sound, m/s (Liquid); method: FPINT:UFactor:8
Temperature, K	Speed of sound, m/s	uncertainty
298.15	1163	6
308.15	1122	6

System: bromobenzene; phases: Liquid
Fixed: Pressure, kPa = 101.325
Property: Mass density, kg/m3 (Liquid); method: VIBTUB:UFactor:16
Temperature, K	Mass density, kg/m3	uncertainty
298.15	1488.272	5.398
303.15	1481.562	5.341
308.15	1472.386	5.262
313.15	1467.088	5.217

System: nitrobenzene; phases: Liquid
Fixed: Pressure, kPa = 101.325
Property: Viscosity, Pa*s (Liquid); method: CAPTUB:UFactor:8
Temperature, K	Viscosity, Pa*s	uncertainty
298.15	0.001791	8.5e-05
308.15	0.001543	7.4e-05

System: nitrobenzene; phases: Liquid
Fixed: Pressure, kPa = 101.325
Property: Speed of sound, m/s (Liquid); method: FPINT:UFactor:8
Temperature, K	Speed of sound, m/s	uncertainty
298.15	1464	6
308.15	1423	6

System: nitrobenzene; phases: Liquid
Fixed: Pressure, kPa = 101.325
Property: Mass density, kg/m3 (Liquid); method: VIBTUB:UFactor:16
Temperature, K	Mass density, kg/m3	uncertainty
298.15	1198.332	2.92
303.15	1193.481	2.88
308.15	1188.222	2.837
313.15	1183.263	2.796

System: chlorobenzene + triethylene glycol; phases: Liquid
Fixed: Pressure, kPa = 101
Property: Viscosity, Pa*s (Liquid); method: CAPTUB:UFactor:8
Temperature, K	Mole fraction of triethylene glycol	Viscosity, Pa*s	uncertainty
298.15	0.0473	0.000941	5e-05
298.15	0.149	0.001491	7.2e-05
298.15	0.2493	0.002307	0.000107
298.15	0.3495	0.003504	0.000157
298.15	0.439	0.005014	0.00022
298.15	0.4734	0.005733	0.000243
298.15	0.5509	0.007695	0.000304
298.15	0.6512	0.011088	0.00041
298.15	0.7493	0.015579	0.000549
298.15	0.8483	0.021583	0.000735
298.15	0.9428	0.028992	0.000964
308.15	0.0473	0.000808	4.5e-05
308.15	0.149	0.001172	5.8e-05
308.15	0.2493	0.001682	8e-05
308.15	0.3495	0.0024	0.00011
308.15	0.439	0.003283	0.000148
308.15	0.4734	0.003699	0.000165
308.15	0.5509	0.004829	0.000212
308.15	0.6512	0.006787	0.000275
308.15	0.7493	0.009422	0.000357
308.15	0.8483	0.013054	0.000469
308.15	0.9428	0.017737	0.000614

System: chlorobenzene + triethylene glycol; phases: Liquid
Fixed: Pressure, kPa = 101
Property: Speed of sound, m/s (Liquid); method: FPINT:UFactor:8
Temperature, K	Mole fraction of triethylene glycol	Speed of sound, m/s	uncertainty
298.15	0.0473	1278	6
298.15	0.149	1305	6
298.15	0.2493	1336	6
298.15	0.3495	1366	6
298.15	0.439	1395	6
298.15	0.4734	1407	6
298.15	0.5509	1435	6
298.15	0.6512	1473	6
298.15	0.7493	1513	6
298.15	0.8483	1553	6
298.15	0.9428	1591	6
308.15	0.0473	1239	6
308.15	0.149	1272	6
308.15	0.2493	1305	6
308.15	0.3495	1338	6
308.15	0.439	1369	6
308.15	0.4734	1381	6
308.15	0.5509	1410	6
308.15	0.6512	1451	6
308.15	0.7493	1489	6
308.15	0.8483	1530	6
308.15	0.9428	1566	6

System: chlorobenzene + triethylene glycol; phases: Liquid
Fixed: Pressure, kPa = 101
Property: Mass density, kg/m3 (Liquid); method: VIBTUB:UFactor:16
Temperature, K	Mole fraction of triethylene glycol	Mass density, kg/m3	uncertainty
298.15	0.0473	1102.31	2.05
298.15	0.149	1105.2	1.93
298.15	0.2493	1107.74	1.82
298.15	0.3495	1110.02	1.72
298.15	0.439	1111.86	1.64
298.15	0.4734	1112.52	1.61
298.15	0.5509	1113.91	1.55
298.15	0.6512	1115.53	1.48
298.15	0.7493	1116.92	1.42
298.15	0.8483	1118.13	1.37
298.15	0.9428	1119.1	1.33
303.15	0.0473	1097.01	2
303.15	0.149	1100.08	1.89
303.15	0.2493	1102.8	1.78
303.15	0.3495	1105.25	1.69
303.15	0.439	1107.24	1.61
303.15	0.4734	1107.96	1.58
303.15	0.5509	1109.48	1.52
303.15	0.6512	1111.26	1.45
303.15	0.7493	1112.81	1.39
303.15	0.8483	1114.18	1.34
303.15	0.9428	1115.3	1.3
308.15	0.0473	1091.35	1.96
308.15	0.149	1094.63	1.85
308.15	0.2493	1097.55	1.74
308.15	0.3495	1100.19	1.65
308.15	0.439	1102.35	1.57
308.15	0.4734	1103.13	1.54
308.15	0.5509	1104.79	1.49
308.15	0.6512	1106.75	1.42
308.15	0.7493	1108.47	1.36
308.15	0.8483	1110.01	1.31
308.15	0.9428	1111.28	1.28
313.15	0.0473	1086.48	1.92
313.15	0.149	1090.07	1.81
313.15	0.2493	1093.28	1.71
313.15	0.3495	1096.19	1.62
313.15	0.439	1098.58	1.55
313.15	0.4734	1099.44	1.52
313.15	0.5509	1101.3	1.46
313.15	0.6512	1103.51	1.4
313.15	0.7493	1105.47	1.34
313.15	0.8483	1107.24	1.29
313.15	0.9428	1108.73	1.26

System: bromobenzene + triethylene glycol; phases: Liquid
Fixed: Pressure, kPa = 101
Property: Viscosity, Pa*s (Liquid); method: CAPTUB:UFactor:8
Temperature, K	Mole fraction of triethylene glycol	Viscosity, Pa*s	uncertainty
298.15	0.0462	0.001316	6.4e-05
298.15	0.1502	0.002173	0.000101
298.15	0.2493	0.00339	0.000153
298.15	0.3505	0.005164	0.000225
298.15	0.4433	0.007374	0.000295
298.15	0.4974	0.008957	0.000344
298.15	0.5484	0.010665	0.000398
298.15	0.6475	0.014609	0.00052
298.15	0.7514	0.019622	0.000676
298.15	0.8484	0.025027	0.000843
298.15	0.937	0.030418	0.001009
308.15	0.0462	0.001168	5.8e-05
308.15	0.1502	0.001769	8.4e-05
308.15	0.2493	0.002568	0.000118
308.15	0.3505	0.003674	0.000165
308.15	0.4433	0.005002	0.00022
308.15	0.4974	0.005935	0.000249
308.15	0.5484	0.006933	0.00028
308.15	0.6475	0.009221	0.000351
308.15	0.7514	0.012146	0.000442
308.15	0.8484	0.015373	0.000542
308.15	0.937	0.01872	0.000645

System: bromobenzene + triethylene glycol; phases: Liquid
Fixed: Pressure, kPa = 101
Property: Speed of sound, m/s (Liquid); method: FPINT:UFactor:8
Temperature, K	Mole fraction of triethylene glycol	Speed of sound, m/s	uncertainty
298.15	0.0462	1179	6
298.15	0.1502	1217	6
298.15	0.2493	1256	6
298.15	0.3505	1299	6
298.15	0.4433	1340	6
298.15	0.4974	1365	6
298.15	0.5484	1388	6
298.15	0.6475	1435	6
298.15	0.7514	1487	6
298.15	0.8484	1537	6
298.15	0.937	1580	6
308.15	0.0462	1139	6
308.15	0.1502	1182	6
308.15	0.2493	1223	6
308.15	0.3505	1268	6
308.15	0.4433	1311	6
308.15	0.4974	1337	6
308.15	0.5484	1362	6
308.15	0.6475	1410	6
308.15	0.7514	1462	6
308.15	0.8484	1509	6
308.15	0.937	1551	6

System: bromobenzene + triethylene glycol; phases: Liquid
Fixed: Pressure, kPa = 101
Property: Mass density, kg/m3 (Liquid); method: VIBTUB:UFactor:16
Temperature, K	Mole fraction of triethylene glycol	Mass density, kg/m3	uncertainty
298.15	0.0462	1465.99	5.03
298.15	0.1502	1418.04	4.38
298.15	0.2493	1375.12	3.85
298.15	0.3505	1333.91	3.36
298.15	0.4433	1298.31	2.96
298.15	0.4974	1278.47	2.75
298.15	0.5484	1260.33	2.56
298.15	0.6475	1226.57	2.23
298.15	0.7514	1193.1	1.92
298.15	0.8484	1163.42	1.66
298.15	0.937	1137.47	1.45
303.15	0.0462	1459.46	4.97
303.15	0.1502	1411.87	4.33
303.15	0.2493	1369.25	3.8
303.15	0.3505	1328.35	3.32
303.15	0.4433	1293.04	2.92
303.15	0.4974	1273.37	2.71
303.15	0.5484	1255.4	2.53
303.15	0.6475	1221.97	2.2
303.15	0.7514	1188.83	1.89
303.15	0.8484	1159.43	1.63
303.15	0.937	1133.66	1.42
308.15	0.0462	1453.43	4.92
308.15	0.1502	1406.05	4.29
308.15	0.2493	1363.58	3.76
308.15	0.3505	1322.87	3.28
308.15	0.4433	1287.78	2.89
308.15	0.4974	1268.25	2.68
308.15	0.5484	1250.43	2.49
308.15	0.6475	1217.32	2.17
308.15	0.7514	1184.5	1.86
308.15	0.8484	1155.34	1.61
308.15	0.937	1129.72	1.4
313.15	0.0462	1445.51	4.85
313.15	0.1502	1398.92	4.23
313.15	0.2493	1357.15	3.71
313.15	0.3505	1317.09	3.23
313.15	0.4433	1282.57	2.85
313.15	0.4974	1263.36	2.64
313.15	0.5484	1245.83	2.46
313.15	0.6475	1213.26	2.14
313.15	0.7514	1180.97	1.84
313.15	0.8484	1152.27	1.59
313.15	0.937	1127.04	1.38

System: nitrobenzene + triethylene glycol; phases: Liquid
Fixed: Pressure, kPa = 101
Property: Viscosity, Pa*s (Liquid); method: CAPTUB:UFactor:8
Temperature, K	Mole fraction of triethylene glycol	Viscosity, Pa*s	uncertainty
298.15	0.0465	0.002086	9.8e-05
298.15	0.1495	0.00291	0.000133
298.15	0.2501	0.003999	0.000179
298.15	0.3505	0.005455	0.000235
298.15	0.4432	0.007222	0.00029
298.15	0.4957	0.008443	0.000328
298.15	0.5486	0.009864	0.000372
298.15	0.6486	0.013166	0.000475
298.15	0.7501	0.017527	0.00061
298.15	0.8489	0.022999	0.000779
298.15	0.94	0.029371	0.000976
308.15	0.0465	0.001759	8.3e-05
308.15	0.1495	0.002342	0.000108
308.15	0.2501	0.003087	0.00014
308.15	0.3505	0.004049	0.00018
308.15	0.4432	0.005184	0.000225
308.15	0.4957	0.005954	0.000249
308.15	0.5486	0.006838	0.000277
308.15	0.6486	0.008857	0.00034
308.15	0.7501	0.011469	0.000421
308.15	0.8489	0.014694	0.00052
308.15	0.94	0.018403	0.000635

System: nitrobenzene + triethylene glycol; phases: Liquid
Fixed: Pressure, kPa = 101
Property: Speed of sound, m/s (Liquid); method: FPINT:UFactor:8
Temperature, K	Mole fraction of triethylene glycol	Speed of sound, m/s	uncertainty
298.15	0.0465	1470	6
298.15	0.1495	1486	6
298.15	0.2501	1502	6
298.15	0.3505	1518	6
298.15	0.4432	1532	6
298.15	0.4957	1541	6
298.15	0.5486	1550	6
298.15	0.6486	1565	6
298.15	0.7501	1581	6
298.15	0.8489	1594	6
298.15	0.94	1604	6
308.15	0.0465	1432	6
308.15	0.1495	1450	6
308.15	0.2501	1468	6
308.15	0.3505	1485	6
308.15	0.4432	1502	6
308.15	0.4957	1510	6
308.15	0.5486	1521	6
308.15	0.6486	1535	6
308.15	0.7501	1550	6
308.15	0.8489	1567	6
308.15	0.94	1576	6

System: nitrobenzene + triethylene glycol; phases: Liquid
Fixed: Pressure, kPa = 101
Property: Mass density, kg/m3 (Liquid); method: VIBTUB:UFactor:16
Temperature, K	Mole fraction of triethylene glycol	Mass density, kg/m3	uncertainty
298.15	0.0465	1193.04	2.77
298.15	0.1495	1181.96	2.52
298.15	0.2501	1171.96	2.3
298.15	0.3505	1162.79	2.1
298.15	0.4432	1155	1.94
298.15	0.4957	1150.86	1.86
298.15	0.5486	1146.89	1.78
298.15	0.6486	1139.88	1.64
298.15	0.7501	1133.38	1.52
298.15	0.8489	1127.59	1.43
298.15	0.94	1122.66	1.35
303.15	0.0465	1188.21	2.73
303.15	0.1495	1177.18	2.48
303.15	0.2501	1167.27	2.26
303.15	0.3505	1158.19	2.07
303.15	0.4432	1150.5	1.91
303.15	0.4957	1146.43	1.82
303.15	0.5486	1142.52	1.75
303.15	0.6486	1135.64	1.61
303.15	0.7501	1129.28	1.5
303.15	0.8489	1123.64	1.4
303.15	0.94	1118.85	1.33
308.15	0.0465	1182.99	2.69
308.15	0.1495	1172.05	2.44
308.15	0.2501	1162.24	2.23
308.15	0.3505	1153.27	2.03
308.15	0.4432	1145.7	1.87
308.15	0.4957	1141.69	1.79
308.15	0.5486	1137.86	1.71
308.15	0.6486	1131.12	1.58
308.15	0.7501	1124.93	1.47
308.15	0.8489	1119.45	1.37
308.15	0.94	1114.82	1.3
313.15	0.0465	1178.15	2.65
313.15	0.1495	1167.49	2.41
313.15	0.2501	1157.93	2.19
313.15	0.3505	1149.22	2
313.15	0.4432	1141.87	1.85
313.15	0.4957	1138	1.77
313.15	0.5486	1134.3	1.69
313.15	0.6486	1127.81	1.56
313.15	0.7501	1121.87	1.45
313.15	0.8489	1116.64	1.36
313.15	0.94	1112.24	1.28

System: nitrobenzene + diethylene glycol; phases: Liquid
Fixed: Pressure, kPa = 101
Property: Viscosity, Pa*s (Liquid); method: CAPTUB:UFactor:8
Temperature, K	Mole fraction of diethylene glycol	Viscosity, Pa*s	uncertainty
298.15	0.0441	0.001987	9.3e-05
298.15	0.1493	0.002565	0.000118
298.15	0.2505	0.003312	0.00015
298.15	0.3502	0.004303	0.000191
298.15	0.4438	0.00555	0.000237
298.15	0.4934	0.006373	0.000263
298.15	0.5487	0.007457	0.000296
298.15	0.6506	0.010036	0.000377
298.15	0.751	0.013583	0.000487
298.15	0.8498	0.01847	0.000638
298.15	0.9429	0.02489	0.000837
308.15	0.0441	0.001691	8.1e-05
308.15	0.1493	0.002115	9.9e-05
308.15	0.2505	0.002642	0.000121
308.15	0.3502	0.00331	0.000149
308.15	0.4438	0.004117	0.000183
308.15	0.4934	0.004632	0.000204
308.15	0.5487	0.005293	0.000228
308.15	0.6506	0.006804	0.000275
308.15	0.751	0.008774	0.000336
308.15	0.8498	0.011343	0.000416
308.15	0.9429	0.014535	0.000515

System: nitrobenzene + diethylene glycol; phases: Liquid
Fixed: Pressure, kPa = 101
Property: Speed of sound, m/s (Liquid); method: FPINT:UFactor:8
Temperature, K	Mole fraction of diethylene glycol	Speed of sound, m/s	uncertainty
298.15	0.0441	1463	6
298.15	0.1493	1473	6
298.15	0.2505	1482	6
298.15	0.3502	1492	6
298.15	0.4438	1503	6
298.15	0.4934	1507	6
298.15	0.5487	1514	6
298.15	0.6506	1528	6
298.15	0.751	1542	6
298.15	0.8498	1556	6
298.15	0.9429	1570	6
308.15	0.0441	1426	6
308.15	0.1493	1437	6
308.15	0.2505	1446	6
308.15	0.3502	1458	6
308.15	0.4438	1469	6
308.15	0.4934	1475	6
308.15	0.5487	1484	6
308.15	0.6506	1498	6
308.15	0.751	1511	6
308.15	0.8498	1524	6
308.15	0.9429	1541	6

System: nitrobenzene + diethylene glycol; phases: Liquid
Fixed: Pressure, kPa = 101
Property: Mass density, kg/m3 (Liquid); method: VIBTUB:UFactor:16
Temperature, K	Mole fraction of diethylene glycol	Mass density, kg/m3	uncertainty
298.15	0.0441	1194.37	2.79
298.15	0.1493	1184.99	2.54
298.15	0.2505	1176.05	2.33
298.15	0.3502	1167.36	2.13
298.15	0.4438	1159.31	1.97
298.15	0.4934	1155.09	1.89
298.15	0.5487	1150.42	1.8
298.15	0.6506	1141.92	1.65
298.15	0.751	1133.65	1.53
298.15	0.8498	1125.61	1.41
298.15	0.9429	1118.1	1.32
303.15	0.0441	1189.6	2.75
303.15	0.1493	1180.3	2.51
303.15	0.2505	1171.38	2.29
303.15	0.3502	1162.7	2.1
303.15	0.4438	1154.69	1.94
303.15	0.4934	1150.51	1.86
303.15	0.5487	1145.91	1.77
303.15	0.6506	1137.57	1.63
303.15	0.751	1129.5	1.5
303.15	0.8498	1121.62	1.39
303.15	0.9429	1114.18	1.29
308.15	0.0441	1184.38	2.71
308.15	0.1493	1175.22	2.47
308.15	0.2505	1166.49	2.26
308.15	0.3502	1158.01	2.07
308.15	0.4438	1150.2	1.9
308.15	0.4934	1146.12	1.82
308.15	0.5487	1141.63	1.74
308.15	0.6506	1133.49	1.6
308.15	0.751	1125.61	1.47
308.15	0.8498	1117.93	1.36
308.15	0.9429	1110.7	1.27
313.15	0.0441	1179.49	2.67
313.15	0.1493	1170.5	2.43
313.15	0.2505	1161.92	2.22
313.15	0.3502	1153.6	2.03
313.15	0.4438	1145.94	1.87
313.15	0.4934	1141.95	1.8
313.15	0.5487	1137.56	1.71
313.15	0.6506	1129.61	1.57
313.15	0.751	1121.92	1.45
313.15	0.8498	1114.44	1.34
313.15	0.9429	1107.38	1.25
