Measured thermophysical data. Study of (Solid Liquid) Phase Equilibria for Mixtures of Energetic Material Stabilizers and Prediction for Their Subsequent Performance
Source: Int. J. Thermophys., 2013, 10.1007/s10765-013-1404-4
Compound 1: bis(2-nitrophenyl)amine, C12H9N3O4, InChI=1S/C12H9N3O4/c16-14(17)11-7-3-1-5-9(11)13-10-6-2-4-8-12(10)15(18)19/h1-8,13H, purity 98%
Compound 2: N-nitroso-N-ethyl-4-nitroaniline, C8H9N3O3, InChI=1S/C8H9N3O3/c1-2-10(9-12)7-3-5-8(6-4-7)11(13)14/h3-6H,2H2,1H3, purity 98%
Compound 3: diphenylamine, C12H11N, InChI=1S/C12H11N/c1-3-7-11(8-4-1)13-12-9-5-2-6-10-12/h1-10,13H, purity 99%
Compound 4: 1,3-diethyl-1,3-diphenylurea, C17H20N2O, InChI=1S/C17H20N2O/c1-3-18(15-11-7-5-8-12-15)17(20)19(4-2)16-13-9-6-10-14-16/h5-14H,3-4H2,1-2H3, purity 99%
Compound 5: 2-nitrodiphenylamine, C12H10N2O2, InChI=1S/C12H10N2O2/c15-14(16)12-9-5-4-8-11(12)13-10-6-2-1-3-7-10/h1-9,13H, purity 99%

System: bis(2-nitrophenyl)amine; phases: Crystal, Liquid, Air at 1 atmosphere
Property: Normal melting temperature, K (Crystal); method: DTA
Normal melting temperature, K	uncertainty
445.45	0.41

System: bis(2-nitrophenyl)amine; phases: Crystal, Liquid, Air at 1 atmosphere
Property: Molar enthalpy of transition or fusion, kJ/mol (Crystal); method: DSC
Molar enthalpy of transition or fusion, kJ/mol	uncertainty
18.36	1.85

System: N-nitroso-N-ethyl-4-nitroaniline; phases: Crystal, Liquid, Air at 1 atmosphere
Property: Normal melting temperature, K (Crystal); method: DTA
Normal melting temperature, K	uncertainty
391.75	0.41

System: N-nitroso-N-ethyl-4-nitroaniline; phases: Crystal, Liquid, Air at 1 atmosphere
Property: Molar enthalpy of transition or fusion, kJ/mol (Crystal); method: DSC
Molar enthalpy of transition or fusion, kJ/mol	uncertainty
31.15	1.91

System: diphenylamine; phases: Crystal, Liquid, Air at 1 atmosphere
Property: Normal melting temperature, K (Crystal); method: DTA
Normal melting temperature, K	uncertainty
326.65	0.41

System: diphenylamine; phases: Crystal, Liquid, Air at 1 atmosphere
Property: Molar enthalpy of transition or fusion, kJ/mol (Crystal); method: DSC
Molar enthalpy of transition or fusion, kJ/mol	uncertainty
19.68	1.85

System: 1,3-diethyl-1,3-diphenylurea; phases: Crystal, Liquid, Air at 1 atmosphere
Property: Normal melting temperature, K (Crystal); method: DTA
Normal melting temperature, K	uncertainty
345.02	0.41

System: 1,3-diethyl-1,3-diphenylurea; phases: Crystal, Liquid, Air at 1 atmosphere
Property: Molar enthalpy of transition or fusion, kJ/mol (Crystal); method: DSC
Molar enthalpy of transition or fusion, kJ/mol	uncertainty
33.54	1.92

System: 2-nitrodiphenylamine; phases: Crystal, Liquid, Air at 1 atmosphere
Property: Normal melting temperature, K (Crystal); method: DTA
Normal melting temperature, K	uncertainty
347.94	0.41

System: 2-nitrodiphenylamine; phases: Crystal, Liquid, Air at 1 atmosphere
Property: Molar enthalpy of transition or fusion, kJ/mol (Crystal); method: DSC
Molar enthalpy of transition or fusion, kJ/mol	uncertainty
26.14	1.88

System: 2-nitrodiphenylamine + diphenylamine; phases: Crystal, Crystal, Liquid, Air at 1 atmosphere
Property: Eutectic temperature, K (Crystal); method: DTA
Eutectic temperature, K	uncertainty
305.15	0.2

System: 2-nitrodiphenylamine + diphenylamine; phases: Crystal, Crystal, Liquid, Air at 1 atmosphere
Property: Eutectic composition: mole fraction of 2-nitrodiphenylamine (Crystal); method: Derived from phase diagram analysis
Eutectic composition: mole fraction of 2-nitrodiphenylamine	uncertainty
0.3013	0.02

System: 2-nitrodiphenylamine + diphenylamine; phases: Liquid, Crystal
Fixed: Pressure, kPa = 101
Property: Solid-liquid equilibrium temperature, K (Liquid); method: DTA:UFactor:2
Mole fraction of 2-nitrodiphenylamine	Solid-liquid equilibrium temperature, K	uncertainty
0	326.65	0.77
0.0501	322.95	0.78
0.1006	320.15	0.78
0.1503	317.25	0.78
0.1998	314.15	0.78
0.2513	309.65	0.78
0.2704	307.75	0.78
0.3013	305.15	0.78

System: 2-nitrodiphenylamine + diphenylamine; phases: Liquid, Crystal
Fixed: Pressure, kPa = 101
Property: Solid-liquid equilibrium temperature, K (Liquid); method: DTA:UFactor:2
Mole fraction of 2-nitrodiphenylamine	Solid-liquid equilibrium temperature, K	uncertainty
0.3211	306.95	0.78
0.3516	309.35	0.78
0.3999	313.05	0.78
0.4507	316.55	0.78
0.5003	319.75	0.78
0.5463	323.05	0.78
0.5989	326.55	0.78
0.6509	329.25	0.78
0.6989	332.35	0.78
0.7493	335.15	0.78
0.7983	338.25	0.78
0.8509	341.15	0.78
0.9011	343.85	0.78
0.9501	345.95	0.78
1	347.94	0.77

System: 1,3-diethyl-1,3-diphenylurea + N-nitroso-N-ethyl-4-nitroaniline; phases: Crystal, Crystal, Liquid, Air at 1 atmosphere
Property: Eutectic temperature, K (Crystal); method: DTA
Eutectic temperature, K	uncertainty
339.15	0.2

System: 1,3-diethyl-1,3-diphenylurea + N-nitroso-N-ethyl-4-nitroaniline; phases: Crystal, Crystal, Liquid, Air at 1 atmosphere
Property: Eutectic composition: mole fraction of 1,3-diethyl-1,3-diphenylurea (Crystal); method: Derived from phase diagram analysis
Eutectic composition: mole fraction of 1,3-diethyl-1,3-diphenylurea	uncertainty
0.8021	0.02

System: 1,3-diethyl-1,3-diphenylurea + N-nitroso-N-ethyl-4-nitroaniline; phases: Liquid, Crystal
Fixed: Pressure, kPa = 101
Property: Solid-liquid equilibrium temperature, K (Liquid); method: DTA:UFactor:2
Mole fraction of 1,3-diethyl-1,3-diphenylurea	Solid-liquid equilibrium temperature, K	uncertainty
0	391.75	0.77
0.0512	389.25	0.78
0.1006	386.45	0.78
0.1505	383.75	0.78
0.2069	380.95	0.78
0.2487	378.55	0.78
0.3012	375.85	0.78
0.3576	372.95	0.78
0.403	369.95	0.78
0.4504	367.05	0.78
0.5008	363.75	0.78
0.5486	360.55	0.78
0.6002	357.35	0.78
0.6456	353.75	0.78
0.7001	349.45	0.78
0.7463	344.45	0.78
0.7796	340.95	0.78

System: 1,3-diethyl-1,3-diphenylurea + N-nitroso-N-ethyl-4-nitroaniline; phases: Liquid, Crystal
Fixed: Pressure, kPa = 101
Property: Solid-liquid equilibrium temperature, K (Liquid); method: DTA:UFactor:2
Mole fraction of 1,3-diethyl-1,3-diphenylurea	Solid-liquid equilibrium temperature, K	uncertainty
0.8021	339.15	0.78
0.8148	340.45	0.78
0.8536	342.05	0.78
0.9008	343.95	0.78
0.9502	344.85	0.77
1	345.02	0.77

System: N-nitroso-N-ethyl-4-nitroaniline + bis(2-nitrophenyl)amine; phases: Crystal, Crystal, Liquid, Air at 1 atmosphere
Property: Eutectic temperature, K (Crystal); method: DTA
Eutectic temperature, K	uncertainty
377.45	0.2

System: N-nitroso-N-ethyl-4-nitroaniline + bis(2-nitrophenyl)amine; phases: Crystal, Crystal, Liquid, Air at 1 atmosphere
Property: Eutectic composition: mole fraction of bis(2-nitrophenyl)amine (Crystal); method: Derived from phase diagram analysis
Eutectic composition: mole fraction of bis(2-nitrophenyl)amine	uncertainty
0.2595	0.02

System: N-nitroso-N-ethyl-4-nitroaniline + bis(2-nitrophenyl)amine; phases: Liquid, Crystal
Fixed: Pressure, kPa = 101
Property: Solid-liquid equilibrium temperature, K (Liquid); method: DTA:UFactor:2
Mole fraction of bis(2-nitrophenyl)amine	Solid-liquid equilibrium temperature, K	uncertainty
0	391.75	0.77
0.0521	388.45	0.78
0.1049	386.25	0.78
0.1577	383.35	0.78
0.1998	380.85	0.78
0.2302	378.95	0.78
0.2595	377.45	0.78

System: N-nitroso-N-ethyl-4-nitroaniline + bis(2-nitrophenyl)amine; phases: Liquid, Crystal
Fixed: Pressure, kPa = 101
Property: Solid-liquid equilibrium temperature, K (Liquid); method: DTA:UFactor:4
Mole fraction of bis(2-nitrophenyl)amine	Solid-liquid equilibrium temperature, K	uncertainty
0.2732	378.65	1.55
0.3091	381.05	1.55
0.3317	382.55	1.55
0.3613	384.75	1.55
0.4133	387.35	1.55
0.4606	393.65	1.55
0.5129	397.85	1.55
0.5631	402.35	1.55
0.612	405.35	1.55
0.6613	410.35	1.55
0.7099	414.85	1.55
0.7598	418.95	1.55
0.8014	423.75	1.55
0.856	428.05	1.55
0.9055	434.35	1.55
0.9533	438.55	1.55
1	445.45	1.55
