Measured thermophysical data. Virial Coefficients from Burnett Measurements for the R23 + N2O System
Source: Int. J. Thermophys., 2006, 10.1007/s10765-006-0082-x
Compound 1: trifluoromethane, CHF3, InChI=1S/CHF3/c2-1(3)4/h1H, purity 99.6%
Compound 2: nitrous oxide, N2O, InChI=1S/N2O/c1-2-3, purity 99.99%

System: trifluoromethane + nitrous oxide; phases: Gas
Property: 2nd virial coefficient, m3/mol (Gas); method: DERIVED:3rdvir:UFactor:0.5
Temperature, K	Mole fraction of nitrous oxide	2nd virial coefficient, m3/mol	uncertainty
303.25	0.3152	-0.0001562	3.6e-06
303.25	0.4308	-0.0001493	3.5e-06
303.25	0.5419	-0.0001438	3.4e-06
303.25	0.6613	-0.0001377	3.3e-06
303.25	0.7758	-0.0001342	3.3e-06
323.43	0.5105	-0.0001231	3.1e-06
323.44	0.2248	-0.0001365	3.3e-06
323.44	0.358	-0.0001295	3.3e-06
323.44	0.6428	-0.0001176	3e-06
323.44	0.7792	-0.0001136	3e-06
343.87	0.7837	-9.72e-05	2.8e-06
343.95	0.2403	-0.0001137	3e-06
343.95	0.4134	-0.0001064	2.9e-06
343.95	0.536	-0.0001027	2.9e-06
343.95	0.6698	-9.97e-05	2.8e-06

System: trifluoromethane + nitrous oxide; phases: Gas
Property: 3rd virial coefficient, m6/mol2 (Gas); method: Derived graphically
Temperature, K	Mole fraction of nitrous oxide	3rd virial coefficient, m6/mol2	uncertainty
303.25	0.3152	9.44e-09	1.054e-09
303.25	0.4308	8.38e-09	1.043e-09
303.25	0.5419	7.66e-09	1.036e-09
303.25	0.6613	6.62e-09	1.027e-09
303.25	0.7758	6.32e-09	1.025e-09
323.43	0.5105	6.37e-09	1.025e-09
323.44	0.2248	8.03e-09	1.04e-09
323.44	0.358	7.18e-09	1.032e-09
323.44	0.6428	5.47e-09	1.019e-09
323.44	0.7792	4.86e-09	1.015e-09
343.87	0.7837	4.11e-09	1.011e-09
343.95	0.2403	6.25e-09	1.024e-09
343.95	0.4134	5.25e-09	1.017e-09
343.95	0.536	4.84e-09	1.015e-09
343.95	0.6698	4.49e-09	1.013e-09

System: trifluoromethane + nitrous oxide; phases: Liquid
Property: Compressibility factor (Liquid); method: Burnett expansion method
Temperature, K	Pressure, kPa	Mole fraction of nitrous oxide	Compressibility factor	uncertainty
303.25	141.8	0.6613	0.9915	0.0001
303.25	151.7	0.3152	0.9906	0.0001
303.25	160.7	0.2248	0.991	0.0002
303.25	174.2	0.5419	0.9896	0.0001
303.25	182.2	0.4308	0.9882	0.0001
303.25	209.6	0.7758	0.9883	0.0001
303.25	211.4	0.6613	0.9879	0.0001
303.25	225.8	0.3152	0.9858	0.0001
303.25	239.5	0.2248	0.9872	0.0002
303.25	259.3	0.5419	0.9847	0.0001
303.25	271.2	0.4308	0.9832	0.0001
303.25	311.9	0.7758	0.983	0.0001
303.25	314.4	0.6613	0.9824	0.0001
303.25	335.5	0.3152	0.9789	0.0001
303.25	356.1	0.2248	0.9814	0.0002
303.25	385.1	0.5419	0.9775	0.0001
303.25	402.6	0.4308	0.9756	0.0001
303.25	462.7	0.7758	0.9749	0.0001
303.25	466.4	0.6613	0.974	0.0001
303.25	496.7	0.3152	0.9688	0.0001
303.25	528.1	0.2248	0.9726	0.0002
303.25	569.8	0.5419	0.9668	0.0001
303.25	595	0.4308	0.9638	0.0001
303.25	683.7	0.7758	0.9628	0.0001
303.25	688.8	0.6613	0.9615	0.0001
303.25	731.3	0.3152	0.9534	0.0001
303.25	779.4	0.2248	0.9596	0.0002
303.25	838.3	0.5419	0.9507	0.0001
303.25	874.1	0.4308	0.9464	0.0001
303.25	1003.6	0.7758	0.9446	0.0001
303.25	1010.4	0.6613	0.9427	0.0001
303.25	1068.3	0.3152	0.9309	0.0001
303.25	1142.3	0.2248	0.94	0.0002
303.25	1222.8	0.5419	0.9269	0.0001
303.25	1272.3	0.4308	0.9208	0.0001
303.25	1459.1	0.7758	0.918	0.0001
303.25	1467.5	0.6613	0.9152	0.0001
303.25	1541.6	0.3152	0.8979	0.0001
303.25	1657.1	0.2248	0.9115	0.0002
303.25	1760.9	0.5419	0.8922	0.0001
303.25	1825.8	0.4308	0.8832	0.0001
303.25	2090.5	0.7758	0.8791	0.0001
303.25	2099	0.6613	0.8749	0.0001
303.25	2185.1	0.3152	0.8507	0.0001
303.25	2366.6	0.2248	0.8701	0.0001
303.25	2486.5	0.5419	0.8421	0.0001
303.25	2565.1	0.4308	0.8294	0.0001
303.25	2929	0.7758	0.8233	0.0001
303.25	2933.8	0.6613	0.8174	0.0001
303.25	3012.1	0.3152	0.7838	0.0001
303.25	3303.6	0.2248	0.8119	0.0001
303.25	3408.6	0.5419	0.7716	0.0001
303.25	3489.6	0.4308	0.7542	0.0001
303.25	3965.1	0.7758	0.7449	0.0001
323.43	176.4	0.5105	0.9908	0.0001
323.43	262.8	0.5105	0.987	0.0001
323.43	391	0.5105	0.9814	0.0001
323.43	579.9	0.5105	0.9729	0.0001
323.43	856.1	0.5105	0.96	0.0001
323.43	1255	0.5105	0.9406	0.0001
323.43	1820.9	0.5105	0.9123	0.0001
323.43	2601.4	0.5105	0.8711	0.0001
323.43	3632.8	0.5105	0.8131	0.0001
323.44	159.9	0.6428	0.9917	0.0001
323.44	170.7	0.7792	0.992	0.0001
323.44	174	0.358	0.9909	0.0001
323.44	238.4	0.6428	0.9886	0.0001
323.44	254.5	0.7792	0.9888	0.0001
323.44	259.3	0.358	0.9869	0.0001
323.44	354.9	0.6428	0.9837	0.0001
323.44	378.9	0.7792	0.9837	0.0001
323.44	385.6	0.358	0.9809	0.0001
323.44	527.1	0.6428	0.9764	0.0001
323.44	562.3	0.7792	0.9759	0.0001
323.44	571.6	0.358	0.972	0.0001
323.44	779.5	0.6428	0.9653	0.0001
323.44	831.2	0.7792	0.9642	0.0001
323.44	843.2	0.358	0.9583	0.0001
323.44	1145.9	0.6428	0.9485	0.0001
323.44	1221	0.7792	0.9467	0.0001
323.44	1235.2	0.358	0.9384	0.0001
323.44	1669.1	0.6428	0.9234	0.0001
323.44	1777.2	0.7792	0.921	0.0001
323.44	1790.3	0.358	0.9091	0.0001
323.44	2399.2	0.6428	0.8872	0.0001
323.44	2551	0.7792	0.8837	0.0001
323.44	2553.4	0.358	0.8666	0.0001
323.44	3379.9	0.6428	0.8354	0.0001
323.44	3557	0.358	0.8069	0.0001
323.44	3585.4	0.7792	0.8302	0.0001
343.87	201	0.7837	0.9917	0.0001
343.87	299.8	0.7837	0.9888	0.0001
343.87	446.5	0.7837	0.9842	0.0001
343.87	663	0.7837	0.9769	0.0001
343.87	980.8	0.7837	0.966	0.0001
343.87	1442.6	0.7837	0.9497	0.0001
343.87	2103.1	0.7837	0.9254	0.0001
343.87	3026.4	0.7837	0.8901	0.0001
343.87	4273	0.7837	0.8401	0.0001
343.95	79.8	0.6698	0.9965	0.0001
343.95	90.5	0.2403	0.991	0.0002
343.95	92.3	0.4174	0.9925	0.0001
343.95	119.5	0.6698	0.9953	0.0001
343.95	128.4	0.536	0.9933	0.0001
343.95	135.6	0.2403	0.991	0.0002
343.95	138.2	0.4174	0.9917	0.0001
343.95	178.9	0.6698	0.9945	0.0001
343.95	192	0.536	0.9915	0.0001
343.95	202.9	0.2403	0.9897	0.0002
343.95	206.8	0.4174	0.9901	0.0001
343.95	266.9	0.6698	0.9901	0.0001
343.95	287	0.536	0.9886	0.0001
343.95	303.2	0.2403	0.9866	0.0002
343.95	308.9	0.4174	0.9871	0.0001
343.95	398.2	0.6698	0.9857	0.0001
343.95	428	0.536	0.9839	0.0001
343.95	451.8	0.2403	0.9812	0.0002
343.95	460.6	0.4174	0.9821	0.0001
343.95	592.7	0.6698	0.9789	0.0001
343.95	636.6	0.536	0.9767	0.0001
343.95	671.3	0.2403	0.9728	0.0002
343.95	684.7	0.4174	0.9741	0.0001
343.95	879	0.6698	0.9688	0.0001
343.95	943.2	0.536	0.9656	0.0001
343.95	992.7	0.2403	0.9599	0.0002
343.95	1013	0.4174	0.9617	0.0001
343.95	1296.6	0.6698	0.9537	0.0001
343.95	1389	0.536	0.9489	0.0001
343.95	1457.5	0.2403	0.9405	0.0002
343.95	1488.7	0.4174	0.9431	0.0001
343.95	1897.6	0.6698	0.9313	0.0001
343.95	2027.4	0.536	0.9241	0.0001
343.95	2117.9	0.2403	0.9119	0.0002
343.95	2166.3	0.4174	0.9157	0.0001
343.95	2743.8	0.6698	0.8986	0.0001
343.95	2920	0.536	0.8882	0.0001
343.95	3030.8	0.2403	0.8708	0.0001
343.95	3105.8	0.4174	0.8761	0.0001
343.95	3898.2	0.6698	0.8519	0.0001
343.95	4125.5	0.536	0.8374	0.0001
343.95	4242.9	0.2403	0.8135	0.0001
343.95	4359.1	0.4174	0.8205	0.0001
