Measured thermophysical data. Ideal-Gas Heat Capacity for 2,3,3,3-Tetrafluoropropene  (HFO-1234yf) Determined from Speed-of-Sound  Measurements
Source: Int. J. Thermophys., 2010, 10.1007/s10765-010-0885-7
Compound 1: 2,3,3,3-tetrafluoro-1-propene, C3H2F4, InChI=1S/C3H2F4/c1-2(4)3(5,6)7/h1H2

System: 2,3,3,3-tetrafluoro-1-propene; phases: Gas
Property: Speed of sound, m/s (Gas); method: Spherical cavity resonance method
Temperature, K	Pressure, kPa	Speed of sound, m/s	uncertainty
278.15	25.443	148.085	0.105
278.15	50.618	147.246	0.104
278.15	75.677	146.389	0.104
278.15	100.999	145.514	0.104
278.15	201.302	141.892	0.104
278.15	300.476	138.019	0.104
293.15	25.293	151.927	0.105
293.15	50.994	151.191	0.105
293.15	75.571	150.473	0.105
293.15	101.227	149.719	0.105
293.15	201.078	146.669	0.104
293.15	292.415	143.725	0.104
293.15	401.237	139.994	0.104
308.15	25.257	155.675	0.105
308.15	50.393	155.053	0.105
308.15	75.504	154.421	0.105
308.15	100.641	153.786	0.105
308.15	200.865	151.183	0.105
308.15	300.848	148.47	0.104
308.15	398.917	145.683	0.104
323.15	25.338	159.311	0.105
323.15	50.233	158.76	0.105
323.15	75.473	158.2	0.105
323.15	100.59	157.639	0.105
323.15	200.868	155.386	0.105
323.15	300.933	153.067	0.105
323.15	401.339	150.657	0.105
338.15	25.366	162.835	0.105
338.15	50.452	162.357	0.105
338.15	75.499	161.866	0.105
338.15	200.631	159.424	0.105
338.15	301.182	157.41	0.105
338.15	407.009	155.227	0.105
338.151	100.773	161.371	0.105
353.147	299.528	161.574	0.105
353.149	25.671	166.316	0.105
353.15	401.296	159.763	0.105
353.151	50.667	165.858	0.105
353.151	75.382	165.441	0.105
353.151	100.553	165.006	0.105
353.152	200.638	163.292	0.105
