Measured thermophysical data. ( p, rho,T,x  ) Properties of  CO 2   /Propane Binary Mixtures at 280 K to 440 K and 3 MPa to 200 MPa
Source: Int. J. Thermophys., 2014, 10.1007/s10765-012-1370-2
Compound 1: carbon dioxide, CO2, InChI=1S/CO2/c2-1-3
Compound 2: propane, C3H8, InChI=1S/C3H8/c1-3-2/h3H2,1-2H3, purity 99.99%

System: propane + carbon dioxide; phases: Liquid
Property: Mass density, kg/m3 (Liquid); method: Bellows volumetry
Mole fraction of carbon dioxide	Temperature, K	Pressure, kPa	Mass density, kg/m3	uncertainty
0.1744	280	200000	720.96	1.48
0.1744	280	180000	712.71	1.46
0.1744	280	160000	703.41	1.44
0.1744	280	140000	693.54	1.42
0.1744	280	120000	682.47	1.4
0.1744	280	100000	670.12	1.37
0.1744	280	90000	663.51	1.36
0.1744	280	80000	656.23	1.34
0.1744	280	70000	648.12	1.32
0.1744	280	60000	639.83	1.31
0.1744	280	50000	629.89	1.29
0.1744	280	40000	619.31	1.26
0.1744	280	30000	606.51	1.24
0.1744	280	20000	592.16	1.21
0.1744	280	10000	573.48	1.16
0.1744	280	5000	561.89	1.14
0.1744	280	3000	556.31	1.13
0.1744	320	200000	697.95	1.43
0.1744	320	180000	688.17	1.41
0.1744	320	160000	678.11	1.39
0.1744	320	140000	666.67	1.36
0.1744	320	120000	654.22	1.34
0.1744	320	100000	639.8	1.31
0.1744	320	90000	631.77	1.29
0.1744	320	80000	623.2	1.27
0.1744	320	70000	613.78	1.25
0.1744	320	60000	603.47	1.23
0.1744	320	50000	591.36	1.2
0.1744	320	40000	577.4	1.17
0.1744	320	30000	560.67	1.14
0.1744	320	20000	539.43	1.09
0.1744	320	10000	508.23	1.02
0.1744	320	5000	482.68	0.97
0.1744	360	200000	676.04	1.38
0.1744	360	180000	665.89	1.36
0.1744	360	160000	654.39	1.34
0.1744	360	140000	642.06	1.31
0.1744	360	120000	627.94	1.28
0.1744	360	100000	611.43	1.25
0.1744	360	90000	602.5	1.23
0.1744	360	80000	592.36	1.21
0.1744	360	70000	581.28	1.18
0.1744	360	60000	568.6	1.16
0.1744	360	50000	553.69	1.12
0.1744	360	40000	535.86	1.09
0.1744	360	30000	513.49	1.04
0.1744	360	20000	481.41	0.97
0.1744	360	10000	419.87	0.84
0.1744	400	200000	654.96	1.34
0.1744	400	180000	643.58	1.31
0.1744	400	160000	631.49	1.29
0.1744	400	140000	617.62	1.26
0.1744	400	120000	601.92	1.23
0.1744	400	100000	583.87	1.19
0.1744	400	90000	573.37	1.17
0.1744	400	80000	561.96	1.14
0.1744	400	70000	548.87	1.11
0.1744	400	60000	533.68	1.08
0.1744	400	50000	515.97	1.04
0.1744	400	40000	493.75	1
0.1744	400	30000	463.97	0.93
0.1744	440	200000	636.19	1.3
0.1744	440	180000	624.2	1.27
0.1744	440	160000	610.94	1.25
0.1744	440	140000	595.88	1.21
0.1744	440	120000	578.72	1.18
0.1744	440	100000	558.7	1.14
0.1744	440	90000	546.96	1.11
0.1744	440	80000	533.91	1.08
0.1744	440	70000	518.95	1.05
0.1744	440	60000	501.53	1.01
0.1744	440	50000	480.3	0.97
0.1744	440	40000	453.4	0.91
0.3863	280	200000	799.56	1.65
0.3863	280	180000	789.73	1.62
0.3863	280	160000	779.18	1.6
0.3863	280	140000	767.28	1.58
0.3863	280	120000	754.61	1.55
0.3863	280	100000	740.27	1.52
0.3863	280	90000	732.5	1.5
0.3863	280	80000	723.24	1.48
0.3863	280	70000	713.93	1.46
0.3863	280	60000	703.48	1.44
0.3863	280	50000	691.83	1.42
0.3863	280	40000	678.81	1.39
0.3863	280	30000	663.74	1.36
0.3863	280	20000	644.94	1.32
0.3863	280	10000	620.48	1.26
0.3863	320	200000	772.24	1.59
0.3863	320	180000	761.05	1.56
0.3863	320	160000	749.2	1.54
0.3863	320	140000	735.96	1.51
0.3863	320	120000	721.25	1.48
0.3863	320	100000	704.18	1.44
0.3863	320	90000	694.88	1.42
0.3863	320	80000	684.45	1.4
0.3863	320	70000	673.05	1.38
0.3863	320	60000	660.15	1.35
0.3863	320	50000	645.47	1.32
0.3863	320	40000	628.01	1.28
0.3863	320	30000	606.46	1.23
0.3863	320	20000	577.9	1.17
0.3863	320	10000	530.48	1.06
0.3863	360	200000	746.96	1.53
0.3863	360	180000	734.92	1.51
0.3863	360	160000	721.47	1.48
0.3863	360	140000	706.76	1.45
0.3863	360	120000	690.06	1.41
0.3863	360	100000	670.54	1.37
0.3863	360	90000	659.51	1.35
0.3863	360	80000	647.34	1.32
0.3863	360	70000	633.44	1.29
0.3863	360	60000	617.66	1.26
0.3863	360	50000	599.05	1.22
0.3863	360	40000	576.34	1.17
0.3863	360	30000	546.54	1.1
0.3863	360	20000	501.31	1.01
0.3863	400	200000	721.61	1.48
0.3863	400	180000	708.41	1.45
0.3863	400	160000	693.82	1.42
0.3863	400	140000	677.58	1.38
0.3863	400	120000	658.95	1.35
0.3863	400	100000	637.16	1.3
0.3863	400	90000	624.68	1.27
0.3863	400	80000	610.56	1.24
0.3863	400	70000	594.51	1.21
0.3863	400	60000	575.8	1.17
0.3863	400	50000	553.29	1.12
0.3863	400	40000	524.65	1.06
0.3863	400	30000	484.73	0.97
0.3863	400	20000	416.94	0.84
0.3863	440	200000	699.19	1.43
0.3863	440	180000	685.33	1.4
0.3863	440	160000	669.67	1.37
0.3863	440	140000	651.66	1.33
0.3863	440	120000	631.24	1.29
0.3863	440	100000	607.11	1.24
0.3863	440	90000	592.95	1.21
0.3863	440	80000	576.94	1.17
0.3863	440	70000	558.53	1.13
0.3863	440	60000	536.68	1.09
0.3863	440	50000	510.05	1.03
0.3863	440	40000	475.39	0.96
0.3863	440	30000	425.58	0.86
0.5837	280	200000	900.92	1.88
0.5837	280	180000	889	1.85
0.5837	280	160000	876.77	1.83
0.5837	280	140000	862.96	1.8
0.5837	280	120000	847.84	1.77
0.5837	280	100000	830.57	1.73
0.5837	280	90000	821.14	1.71
0.5837	280	80000	810.6	1.69
0.5837	280	70000	799.31	1.66
0.5837	280	60000	786.68	1.63
0.5837	280	50000	772.63	1.6
0.5837	280	40000	756.53	1.57
0.5837	280	30000	737.38	1.53
0.5837	280	20000	713.25	1.47
0.5837	280	10000	680.55	1.4
0.5837	320	200000	866.84	1.8
0.5837	320	180000	853.99	1.78
0.5837	320	160000	839.79	1.75
0.5837	320	140000	824.18	1.71
0.5837	320	120000	806	1.67
0.5837	320	100000	785.61	1.63
0.5837	320	90000	773.99	1.6
0.5837	320	80000	761.45	1.58
0.5837	320	70000	747.63	1.55
0.5837	320	60000	731.74	1.51
0.5837	320	50000	713.18	1.47
0.5837	320	40000	691.1	1.42
0.5837	320	30000	663.4	1.36
0.5837	320	20000	623.7	1.27
0.5837	320	10000	547.46	1.11
0.5837	360	200000	833.79	1.73
0.5837	360	180000	819.85	1.7
0.5837	360	160000	803.84	1.67
0.5837	360	140000	786.28	1.63
0.5837	360	120000	766.21	1.58
0.5837	360	100000	742.72	1.53
0.5837	360	90000	729.21	1.5
0.5837	360	80000	714.31	1.47
0.5837	360	70000	697.37	1.43
0.5837	360	60000	677.69	1.39
0.5837	360	50000	654.15	1.34
0.5837	360	40000	624.74	1.27
0.5837	360	30000	584.42	1.18
0.5837	360	20000	518.21	1.04
0.5837	400	200000	803.17	1.66
0.5837	400	180000	787.61	1.63
0.5837	400	160000	770.18	1.59
0.5837	400	140000	750.66	1.55
0.5837	400	120000	728.37	1.5
0.5837	400	100000	701.68	1.44
0.5837	400	90000	686.29	1.41
0.5837	400	80000	668.81	1.37
0.5837	400	70000	648.89	1.33
0.5837	400	60000	625.2	1.28
0.5837	400	50000	596.39	1.21
0.5837	400	40000	558.9	1.13
0.5837	400	30000	504.63	1.01
0.5837	440	200000	776.34	1.6
0.5837	440	180000	759.39	1.57
0.5837	440	160000	740.68	1.53
0.5837	440	140000	719.21	1.48
0.5837	440	120000	694.36	1.43
0.5837	440	100000	664.74	1.36
0.5837	440	90000	647.49	1.32
0.5837	440	80000	627.72	1.28
0.5837	440	70000	604.68	1.23
0.5837	440	60000	577.1	1.17
0.5837	440	50000	543.19	1.1
0.5837	440	40000	498.14	1
0.7732	280	200000	1034.57	2.16
0.7732	280	180000	1020.76	2.13
0.7732	280	160000	1006.14	2.1
0.7732	280	140000	989.75	2.06
0.7732	280	120000	971.86	2.03
0.7732	280	100000	951.22	1.98
0.7732	280	90000	939.34	1.96
0.7732	280	80000	927.24	1.93
0.7732	280	70000	912.73	1.9
0.7732	280	60000	897.67	1.87
0.7732	280	50000	880.32	1.83
0.7732	280	40000	861.06	1.79
0.7732	280	30000	837.33	1.74
0.7732	280	20000	807.46	1.67
0.7732	280	10000	763.91	1.58
0.7732	320	200000	990.64	2.06
0.7732	320	180000	975.24	2.03
0.7732	320	160000	958.02	1.99
0.7732	320	140000	939.18	1.95
0.7732	320	120000	917.78	1.91
0.7732	320	100000	893.05	1.85
0.7732	320	90000	879.25	1.83
0.7732	320	80000	863.57	1.79
0.7732	320	70000	846.24	1.75
0.7732	320	60000	826.73	1.71
0.7732	320	50000	803.46	1.66
0.7732	320	40000	775.23	1.6
0.7732	320	30000	738.49	1.51
0.7732	320	20000	683.7	1.39
0.7732	360	200000	948.91	1.97
0.7732	360	180000	931.8	1.93
0.7732	360	160000	912.47	1.89
0.7732	360	140000	891.18	1.85
0.7732	360	120000	866.62	1.79
0.7732	360	100000	837.52	1.73
0.7732	360	90000	821	1.7
0.7732	360	80000	802.2	1.66
0.7732	360	70000	780.83	1.61
0.7732	360	60000	755.67	1.55
0.7732	360	50000	725.46	1.49
0.7732	360	40000	686.69	1.4
0.7732	360	30000	631.46	1.28
0.7732	360	20000	532.45	1.07
0.7732	400	200000	909.94	1.89
0.7732	400	180000	890.88	1.85
0.7732	400	160000	869.72	1.8
0.7732	400	140000	845.81	1.75
0.7732	400	120000	818.25	1.69
0.7732	400	100000	785.16	1.62
0.7732	400	90000	765.81	1.58
0.7732	400	80000	743.76	1.53
0.7732	400	70000	718.31	1.47
0.7732	400	60000	687.92	1.41
0.7732	400	50000	650.25	1.32
0.7732	400	40000	600.44	1.21
0.7732	400	30000	526.28	1.06
0.7732	440	200000	875.02	1.81
0.7732	440	180000	854.41	1.76
0.7732	440	160000	831.52	1.71
0.7732	440	140000	805.33	1.66
0.7732	440	120000	774.63	1.59
0.7732	440	100000	737.47	1.51
0.7732	440	90000	715.85	1.47
0.7732	440	80000	690.97	1.41
0.7732	440	70000	661.78	1.35
0.7732	440	60000	626.71	1.27
0.7732	440	50000	582.81	1.18
0.7732	440	40000	524.14	1.06
