Measured thermophysical data. Excess Volumes, Densities, Speeds of Sound, and Viscosities for the Binary Systems of 1-Octanol with Hexadecane and Squalane at (298.15, 303.15 and 308.15) K
Source: Int. J. Thermophys., 2008, 10.1007/s10765-008-0491-0
Compound 1: octan-1-ol, C8H18O, InChI=1S/C8H18O/c1-2-3-4-5-6-7-8-9/h9H,2-8H2,1H3, purity 99.5%
Compound 2: hexadecane, C16H34, InChI=1S/C16H34/c1-3-5-7-9-11-13-15-16-14-12-10-8-6-4-2/h3-16H2,1-2H3, purity 99%
Compound 3: 2,6,10,15,19,23-hexamethyltetracosane, C30H62, InChI=1S/C30H62/c1-25(2)15-11-19-29(7)23-13-21-27(5)17-9-10-18-28(6)22-14-24-30(8)20-12-16-26(3)4/h25-30H,9-24H2,1-8H3, purity 99%

System: octan-1-ol + hexadecane; phases: Liquid
Fixed: Pressure, kPa = 101
Property: Viscosity, Pa*s (Liquid); method: Capillary tube (Ostwald; Ubbelohde) method
Temperature, K	Mole fraction of octan-1-ol	Viscosity, Pa*s	uncertainty
298.15	0	0.003041	1.9e-05
298.15	0.0461	0.003073	1.9e-05
298.15	0.1039	0.003089	1.9e-05
298.15	0.1547	0.003096	1.9e-05
298.15	0.1944	0.003107	1.9e-05
298.15	0.2685	0.003175	1.9e-05
298.15	0.3383	0.00329	2e-05
298.15	0.4099	0.003472	2.1e-05
298.15	0.4981	0.003768	2.3e-05
298.15	0.6017	0.004223	2.6e-05
298.15	0.6927	0.004714	2.8e-05
298.15	0.7963	0.005384	3.2e-05
298.15	0.8445	0.005757	3.4e-05
298.15	0.895	0.006219	3.6e-05
298.15	0.9529	0.00686	3.9e-05
298.15	1	0.007508	4.2e-05
303.15	0	0.002706	1.7e-05
303.15	0.0461	0.002748	1.7e-05
303.15	0.1039	0.002741	1.7e-05
303.15	0.1547	0.002728	1.7e-05
303.15	0.1944	0.002728	1.7e-05
303.15	0.2685	0.002773	1.7e-05
303.15	0.3383	0.002881	1.8e-05
303.15	0.4099	0.003041	1.9e-05
303.15	0.4981	0.003307	2e-05
303.15	0.6017	0.003681	2.2e-05
303.15	0.6927	0.004086	2.5e-05
303.15	0.7963	0.004663	2.8e-05
303.15	0.8445	0.004992	3e-05
303.15	0.895	0.005383	3.2e-05
303.15	0.9529	0.005883	3.4e-05
303.15	1	0.006344	3.6e-05
308.15	0	0.002409	1.5e-05
308.15	0.0461	0.002402	1.5e-05
308.15	0.1039	0.002399	1.5e-05
308.15	0.1547	0.002406	1.5e-05
308.15	0.1944	0.002419	1.5e-05
308.15	0.2685	0.002473	1.5e-05
308.15	0.3383	0.002561	1.6e-05
308.15	0.4099	0.002688	1.7e-05
308.15	0.4981	0.002896	1.8e-05
308.15	0.6017	0.003218	2e-05
308.15	0.6927	0.003554	2.2e-05
308.15	0.7963	0.004008	2.4e-05
308.15	0.8445	0.004251	2.6e-05
308.15	0.895	0.00454	2.7e-05
308.15	0.9529	0.004944	3e-05
308.15	1	0.005363	3.2e-05

System: octan-1-ol + hexadecane; phases: Liquid
Fixed: Pressure, kPa = 101
Property: Speed of sound, m/s (Liquid); method: Sing-around technique in a fixed-path interferometer
Temperature, K	Mole fraction of octan-1-ol	Speed of sound, m/s	uncertainty
293.15	0	1338.6	0.8
293.15	0.0461	1337	0.8
293.15	0.1039	1335.7	0.8
293.15	0.1547	1334.7	0.8
293.15	0.1944	1334.3	0.8
293.15	0.2685	1333.7	0.8
293.15	0.3383	1333.5	0.8
293.15	0.4099	1333.3	0.8
293.15	0.4981	1333.5	0.8
293.15	0.6017	1334.2	0.8
293.15	0.6927	1335.8	0.8
293.15	0.7963	1338.5	0.8
293.15	0.8445	1340.1	0.8
293.15	0.895	1342.2	0.8
293.15	0.9529	1344.9	0.8
293.15	1	1348	0.8
303.15	0	1320	0.8
303.15	0.0461	1318.4	0.8
303.15	0.1039	1317.1	0.8
303.15	0.1547	1316.1	0.8
303.15	0.1944	1315.8	0.8
303.15	0.2685	1315.3	0.8
303.15	0.3383	1315.1	0.8
303.15	0.4099	1314.9	0.8
303.15	0.4981	1315.3	0.8
303.15	0.6017	1316.2	0.8
303.15	0.6927	1317.9	0.8
303.15	0.7963	1320.9	0.8
303.15	0.8445	1322.6	0.8
303.15	0.895	1324.9	0.8
303.15	0.9529	1327.9	0.8
303.15	1	1330.8	0.8
308.15	0	1301.7	0.8
308.15	0.0461	1299.9	0.8
308.15	0.1039	1298.7	0.8
308.15	0.1547	1297.7	0.8
308.15	0.1944	1297.4	0.8
308.15	0.2685	1296.9	0.8
308.15	0.3383	1296.8	0.8
308.15	0.4099	1296.8	0.8
308.15	0.4981	1297.2	0.8
308.15	0.6017	1298.4	0.8
308.15	0.6927	1300.2	0.8
308.15	0.7963	1303.4	0.8
308.15	0.8445	1305.3	0.8
308.15	0.895	1307.8	0.8
308.15	0.9529	1310.9	0.8
308.15	1	1314.1	0.8

System: octan-1-ol + hexadecane; phases: Liquid
Fixed: Pressure, kPa = 101
Property: Mass density, kg/m3 (Liquid); method: Vibrating tube method
Temperature, K	Mole fraction of octan-1-ol	Mass density, kg/m3	uncertainty
293.15	0	770.456	0.423
293.15	0.0461	771.581	0.423
293.15	0.1039	773.103	0.423
293.15	0.1547	774.574	0.422
293.15	0.1944	775.766	0.422
293.15	0.2685	778.197	0.422
293.15	0.3383	780.693	0.422
293.15	0.4099	783.479	0.422
293.15	0.4981	787.31	0.421
293.15	0.6017	792.441	0.421
293.15	0.6927	797.621	0.42
293.15	0.7963	804.426	0.42
293.15	0.8445	808.003	0.42
293.15	0.895	812.077	0.419
293.15	0.9529	817.221	0.419
293.15	1	821.813	0.418
303.15	0	766.981	0.423
303.15	0.0461	768.09	0.423
303.15	0.1039	769.605	0.423
303.15	0.1547	771.039	0.423
303.15	0.1944	772.218	0.423
303.15	0.2685	774.63	0.422
303.15	0.3383	777.145	0.422
303.15	0.4099	779.937	0.422
303.15	0.4981	783.781	0.422
303.15	0.6017	788.911	0.421
303.15	0.6927	794.075	0.421
303.15	0.7963	800.846	0.42
303.15	0.8445	804.438	0.42
303.15	0.895	808.561	0.42
303.15	0.9529	813.871	0.419
303.15	1	818.796	0.418
308.15	0	763.52	0.423
308.15	0.0461	764.586	0.423
308.15	0.1039	766.078	0.423
308.15	0.1547	767.495	0.423
308.15	0.1944	768.68	0.423
308.15	0.2685	771.077	0.423
308.15	0.3383	773.575	0.423
308.15	0.4099	776.383	0.422
308.15	0.4981	780.228	0.422
308.15	0.6017	785.346	0.422
308.15	0.6927	790.488	0.421
308.15	0.7963	797.284	0.421
308.15	0.8445	800.882	0.42
308.15	0.895	805.017	0.42
308.15	0.9529	810.331	0.42
308.15	1	815.286	0.419

System: 2,6,10,15,19,23-hexamethyltetracosane + octan-1-ol; phases: Liquid
Fixed: Pressure, kPa = 101
Property: Viscosity, Pa*s (Liquid); method: Capillary tube (Ostwald; Ubbelohde) method
Temperature, K	Mole fraction of octan-1-ol	Viscosity, Pa*s	uncertainty
298.15	0	0.028257	0.000139
298.15	0.0596	0.024176	0.000121
298.15	0.1053	0.021924	0.00011
298.15	0.1563	0.020118	0.000101
298.15	0.2092	0.018812	9.5e-05
298.15	0.2648	0.017878	9e-05
298.15	0.3404	0.016974	8.6e-05
298.15	0.398	0.016377	8.3e-05
298.15	0.4799	0.015418	7.9e-05
298.15	0.5974	0.013555	7e-05
298.15	0.6988	0.011514	6e-05
298.15	0.8079	0.009294	5e-05
298.15	0.8519	0.008533	4.7e-05
298.15	0.8942	0.007963	4.4e-05
298.15	0.9474	0.007526	4.2e-05
298.15	1	0.007506	4.2e-05
303.15	0	0.022087	0.00011
303.15	0.0596	0.019207	9.7e-05
303.15	0.1053	0.017587	8.9e-05
303.15	0.1563	0.016254	8.3e-05
303.15	0.2092	0.015257	7.8e-05
303.15	0.2648	0.014504	7.5e-05
303.15	0.3404	0.013743	7.1e-05
303.15	0.398	0.013237	6.9e-05
303.15	0.4799	0.01245	6.5e-05
303.15	0.5974	0.011008	5.8e-05
303.15	0.6988	0.009441	5.1e-05
303.15	0.8079	0.007693	4.3e-05
303.15	0.8519	0.007093	4e-05
303.15	0.8942	0.006624	3.8e-05
303.15	0.9474	0.006288	3.6e-05
303.15	1	0.006344	3.6e-05
308.15	0	0.017774	9e-05
308.15	0.0596	0.015495	8e-05
308.15	0.1053	0.014212	7.3e-05
308.15	0.1563	0.013144	6.8e-05
308.15	0.2092	0.012342	6.5e-05
308.15	0.2648	0.011734	6.2e-05
308.15	0.3404	0.011129	5.9e-05
308.15	0.398	0.010724	5.7e-05
308.15	0.4799	0.010122	5.4e-05
308.15	0.5974	0.009007	4.9e-05
308.15	0.6988	0.007786	4.3e-05
308.15	0.8079	0.006416	3.7e-05
308.15	0.8519	0.005937	3.4e-05
308.15	0.8942	0.005572	3.3e-05
308.15	0.9474	0.00531	3.1e-05
308.15	1	0.005363	3.2e-05

System: 2,6,10,15,19,23-hexamethyltetracosane + octan-1-ol; phases: Liquid
Fixed: Pressure, kPa = 101
Property: Speed of sound, m/s (Liquid); method: Sing-around technique in a fixed-path interferometer
Temperature, K	Mole fraction of octan-1-ol	Speed of sound, m/s	uncertainty
293.15	0	1381.9	0.9
293.15	0.0596	1379.9	0.9
293.15	0.1053	1378.5	0.9
293.15	0.1563	1376.9	0.9
293.15	0.2092	1375.7	0.9
293.15	0.2648	1374.2	0.9
293.15	0.3404	1372.4	0.9
293.15	0.398	1370.8	0.9
293.15	0.4799	1368.6	0.8
293.15	0.5974	1364.9	0.8
293.15	0.6988	1361.3	0.8
293.15	0.8079	1356.9	0.8
293.15	0.8519	1355.2	0.8
293.15	0.8942	1353.2	0.8
293.15	0.9474	1350.6	0.8
293.15	1	1348	0.8
303.15	0	1364.1	0.8
303.15	0.0596	1362.1	0.8
303.15	0.1053	1360.4	0.8
303.15	0.1563	1359.3	0.8
303.15	0.2092	1357.8	0.8
303.15	0.2648	1356.4	0.8
303.15	0.3404	1354.5	0.8
303.15	0.398	1352.9	0.8
303.15	0.4799	1350.7	0.8
303.15	0.5974	1347.1	0.8
303.15	0.6988	1343.7	0.8
303.15	0.8079	1339.5	0.8
303.15	0.8519	1337.8	0.8
303.15	0.8942	1335.9	0.8
303.15	0.9474	1333.5	0.8
303.15	1	1330.8	0.8
308.15	0	1346.5	0.8
308.15	0.0596	1344.1	0.8
308.15	0.1053	1343.1	0.8
308.15	0.1563	1341.5	0.8
308.15	0.2092	1340.2	0.8
308.15	0.2648	1338.7	0.8
308.15	0.3404	1336.8	0.8
308.15	0.398	1335.3	0.8
308.15	0.4799	1333.1	0.8
308.15	0.5974	1329.5	0.8
308.15	0.6988	1326.1	0.8
308.15	0.8079	1322.1	0.8
308.15	0.8519	1320.4	0.8
308.15	0.8942	1318.7	0.8
308.15	0.9474	1316.4	0.8
308.15	1	1314.1	0.8

System: 2,6,10,15,19,23-hexamethyltetracosane + octan-1-ol; phases: Liquid
Fixed: Pressure, kPa = 101
Property: Mass density, kg/m3 (Liquid); method: Vibrating tube method
Temperature, K	Mole fraction of octan-1-ol	Mass density, kg/m3	uncertainty
293.15	0	805.122	0.42
293.15	0.0596	805.175	0.42
293.15	0.1053	805.299	0.42
293.15	0.1563	805.499	0.42
293.15	0.2092	805.773	0.42
293.15	0.2648	806.107	0.42
293.15	0.3404	806.637	0.419
293.15	0.398	807.105	0.419
293.15	0.4799	807.875	0.419
293.15	0.5974	809.279	0.419
293.15	0.6988	810.937	0.419
293.15	0.8079	813.477	0.419
293.15	0.8519	814.812	0.419
293.15	0.8942	816.384	0.419
293.15	0.9474	818.773	0.419
293.15	1	821.813	0.418
303.15	0	801.912	0.42
303.15	0.0596	801.944	0.42
303.15	0.1053	802.053	0.42
303.15	0.1563	802.234	0.42
303.15	0.2092	802.479	0.42
303.15	0.2648	802.799	0.42
303.15	0.3404	803.312	0.42
303.15	0.398	803.775	0.42
303.15	0.4799	804.507	0.42
303.15	0.5974	805.92	0.42
303.15	0.6988	807.538	0.419
303.15	0.8079	810.008	0.419
303.15	0.8519	811.352	0.419
303.15	0.8942	812.92	0.419
303.15	0.9474	815.429	0.419
303.15	1	818.796	0.418
308.15	0	798.709	0.42
308.15	0.0596	798.711	0.42
308.15	0.1053	798.798	0.42
308.15	0.1563	798.947	0.42
308.15	0.2092	799.184	0.42
308.15	0.2648	799.487	0.42
308.15	0.3404	799.989	0.42
308.15	0.398	800.439	0.42
308.15	0.4799	801.188	0.42
308.15	0.5974	802.536	0.42
308.15	0.6988	804.116	0.42
308.15	0.8079	806.567	0.42
308.15	0.8519	807.925	0.419
308.15	0.8942	809.463	0.419
308.15	0.9474	811.955	0.419
308.15	1	815.286	0.419
