Measured thermophysical data. Study of the Effects of Temperature and Pressure on the Thermodynamic and Acoustic Properties of 2-Methyl-1-butanol at Temperatures from 293K to 318K and Pressures up to 100MPa
Source: Int. J. Thermophys., 2010, 10.1007/s10765-009-0607-1
Compound 1: 2-methyl-1-butanol, C5H12O, InChI=1S/C5H12O/c1-3-5(2)4-6/h5-6H,3-4H2,1-2H3, purity 99%

System: 2-methyl-1-butanol; phases: Liquid
Property: Refractive index (Na D-line) (Liquid); method: Standard Abbe refractometry
Temperature, K	Pressure, kPa	Refractive index (Na D-line)	uncertainty
298.15	101.325	1.4086	0.0005

System: 2-methyl-1-butanol; phases: Liquid
Fixed: Pressure, kPa = 101.325
Property: Molar heat capacity at constant pressure, J/K/mol (Liquid); method: Small sample (50 mg) DSC
Temperature, K	Molar heat capacity at constant pressure, J/K/mol	uncertainty
284.14	200.72	3.11
288.15	204.34	3.17
293.14	209.01	3.24
298.14	213.91	3.32
298.15	213.88	3.31
298.16	213.94	3.32
303.15	218.98	3.39
308.14	224.32	3.48
313.16	229.74	3.56
318.15	235.2	3.65
323.14	240.7	3.73
328.15	246.21	3.82
333.14	251.55	3.9
338.16	256.8	3.98
343.15	261.79	4.06
348.14	266.64	4.13
353.15	271.18	4.2
355.12	272.93	4.23

System: 2-methyl-1-butanol; phases: Liquid, Air at 1 atmosphere
Property: Mass density, kg/m3 (Liquid); method: Pycnometric method
Temperature, K	Mass density, kg/m3	uncertainty
293.15	818.73	0.33
298.15	815.02	0.34
298.16	815.01	0.34
303.16	811.25	0.34
308.16	807.44	0.35
313.16	803.58	0.36
318.16	799.66	0.37

System: 2-methyl-1-butanol; phases: Liquid
Property: Speed of sound, m/s (Liquid); method: Pulse-echo method
Temperature, K	Pressure, kPa	Speed of sound, m/s	uncertainty
292.86	15200	1355.5	1.25
292.86	30390	1426.09	1.31
292.86	45590	1489.75	1.38
292.86	60790	1548.13	1.44
292.86	75990	1602.52	1.51
292.86	91180	1653.28	1.58
292.86	101320	1685.32	1.62
292.89	100	1271.16	1.24
298.15	101.325	1253.09	1.24
298.15	30390	1410.68	1.32
298.15	45590	1475.28	1.38
298.15	60790	1534.3	1.45
298.15	75990	1588.97	1.51
298.15	91180	1640.43	1.58
298.15	101320	1672.51	1.62
298.16	15200	1338.81	1.27
298.17	100	1253.01	1.24
303.12	30390	1396.12	1.32
303.12	45590	1461.7	1.38
303.12	60790	1521.3	1.45
303.12	75990	1576.62	1.51
303.12	91180	1628.35	1.58
303.12	101320	1660.84	1.63
303.13	15200	1323.42	1.26
303.15	100	1236.01	1.23
308.12	15200	1308.02	1.26
308.12	30390	1381.77	1.32
308.12	45590	1448.04	1.38
308.12	60790	1508.55	1.45
308.12	75990	1564.09	1.52
308.12	91180	1616.64	1.59
308.12	101320	1649.31	1.63
308.14	100	1219.02	1.23
313.1	30390	1367.72	1.31
313.1	45590	1434.86	1.38
313.1	60790	1495.96	1.45
313.1	75990	1552.1	1.52
313.1	91180	1604.92	1.59
313.1	101320	1638.14	1.63
313.11	15200	1292.81	1.26
313.12	100	1202.13	1.22
318.18	15200	1277.52	1.29
318.18	45590	1421.73	1.39
318.18	91180	1593.24	1.59
318.19	30390	1353.75	1.33
318.19	60790	1483.43	1.45
318.19	75990	1539.94	1.52
318.19	101320	1626.83	1.64
318.31	100	1184.65	1.22
