Measured thermophysical data. Thermal Diffusivity, Sound Speed, Viscosity, and Surface Tension of R227ea (1,1,1,2,3,3,3-Heptafluoropropane)
Source: Int. J. Thermophys., 2006, 10.1007/s10765-006-0122-6
Compound 1: 1,1,1,2,3,3,3-heptafluoropropane, C3HF7, InChI=1S/C3HF7/c4-1(2(5,6)7)3(8,9)10/h1H, purity 99.9%

System: 1,1,1,2,3,3,3-heptafluoropropane; phases: Liquid, Gas
Property: Critical temperature, K (Liquid); method: Visual observation in an unstirred cell
Critical temperature, K	uncertainty
374.9	0.12

System: 1,1,1,2,3,3,3-heptafluoropropane; phases: Liquid, Gas
Property: Surface tension liquid-gas, N/m (Liquid); method: surface light scattering
Temperature, K	Surface tension liquid-gas, N/m	uncertainty
253.15	0.01226	0.00025
263.15	0.01096	0.00022
273.15	0.00976	0.0002
283.15	0.00862	0.00017
293.15	0.00746	0.00015
303.15	0.00631	0.00013
313.15	0.00525	0.00011
323.15	0.00423	9e-05
333.15	0.00323	7e-05
343.15	0.0023	5e-05
353.15	0.00142	3e-05
358.15	0.00102	3e-05
363.15	0.000644	1.9e-05
368.15	0.000314	1.4e-05
370.15	0.0002	1.2e-05
371.15	0.000145	1.1e-05
372.15	9.7e-05	1e-05

System: 1,1,1,2,3,3,3-heptafluoropropane; phases: Gas, Liquid
Property: Thermal diffusivity, m2/s (Gas); method: dynamic light scattering
Temperature, K	Thermal diffusivity, m2/s	uncertainty
345.66	1.014e-07	2e-09
348.15	9.3e-08	1.9e-09
350.65	8.46e-08	1.7e-09
353.15	7.64e-08	1.5e-09
355.64	6.9e-08	1.4e-09
358.14	6.06e-08	1.2e-09
360.64	5.25e-08	1.1e-09
363.14	4.41e-08	9e-10
365.63	3.6e-08	7e-10
367.67	2.91e-08	6e-10
369.47	2.26e-08	5e-10
370.76	1.78e-08	4e-10
371.96	1.32e-08	3e-10
372.96	9.21e-09	1.8e-10
373.95	4.9e-09	1e-10
374.45	2.65e-09	5e-11
374.65	1.73e-09	4e-11

System: 1,1,1,2,3,3,3-heptafluoropropane; phases: Liquid, Gas
Property: Thermal diffusivity, m2/s (Liquid); method: dynamic light scattering
Temperature, K	Thermal diffusivity, m2/s	uncertainty
293.22	3.66e-08	7e-10
303.12	3.5e-08	7e-10
313.2	3.26e-08	7e-10
323.18	3.14e-08	6e-10
332.72	2.95e-08	6e-10
342.68	2.76e-08	6e-10
348.02	2.66e-08	5e-10
353.02	2.51e-08	5e-10
358.09	2.36e-08	5e-10
363.09	2.11e-08	4e-10
365.9	1.92e-08	4e-10
368.08	1.72e-08	4e-10
370.2	1.42e-08	3e-10
371.41	1.21e-08	3e-10
372.19	9.91e-09	3.3e-10
372.99	7.88e-09	3.3e-10
373.5	6.11e-09	3.7e-10
373.99	4.34e-09	4e-10
374.49	2.24e-09	4.4e-10
374.67	1.36e-09	4.9e-10

System: 1,1,1,2,3,3,3-heptafluoropropane; phases: Liquid, Gas
Property: Kinematic viscosity, m2/s (Liquid); method: surface light scattering
Temperature, K	Kinematic viscosity, m2/s	uncertainty
253.15	2.875e-07	5.8e-09
263.15	2.537e-07	5.1e-09
273.15	2.278e-07	4.6e-09
283.15	2.053e-07	4.1e-09
293.15	1.83e-07	3.7e-09
303.15	1.659e-07	6.6e-09
313.15	1.515e-07	6.1e-09
323.15	1.357e-07	5.4e-09
333.15	1.224e-07	4.9e-09
343.15	1.078e-07	4.3e-09
353.15	9.43e-08	3.8e-09
358.15	8.74e-08	3.5e-09
363.15	8.08e-08	3.2e-09
368.15	7.34e-08	3e-09
370.15	7.03e-08	2.8e-09
371.15	6.79e-08	2.7e-09
372.15	6.74e-08	2.7e-09

System: 1,1,1,2,3,3,3-heptafluoropropane; phases: Gas, Liquid
Property: Speed of sound, m/s (Gas); method: dynamic light scattering
Temperature, K	Speed of sound, m/s	uncertainty
345.66	92.5	0.9
348.15	90.6	0.9
350.65	89.4	0.9
353.15	87.1	0.9
355.64	85.1	0.9
358.14	82.9	0.8
360.64	80.4	0.8
363.14	77.9	0.8
365.63	75.2	0.8
367.67	72.8	0.7
369.47	70.5	0.7
370.76	68.7	0.7
371.96	67	0.7
372.96	65.3	0.7
373.95	63.6	0.7

System: 1,1,1,2,3,3,3-heptafluoropropane; phases: Liquid, Gas
Property: Speed of sound, m/s (Liquid); method: dynamic light scattering
Temperature, K	Speed of sound, m/s	uncertainty
293.22	437.4	4.4
303.12	397.8	4
313.2	356.8	3.6
323.18	315.5	3.2
332.72	275.1	2.8
342.68	231.6	2.4
348.02	208.4	2.1
353.02	185.5	1.9
358.09	160.8	1.7
363.09	134.7	1.5
365.9	118.5	1.3
368.08	106.1	1.2
370.2	92.6	1.1
371.41	83.8	1.1
372.19	78.2	1.1
372.99	72.8	1.1
373.5	68.3	1
373.99	65.3	0.9
