Measured thermophysical data. Measurements of the Viscosity of Molten Lithium Nitrate by the Oscillating-cup Method
Source: Int. J. Thermophys., 2017, 10.1007/s10765-016-2150-1
Compound 1: lithium nitrate, LiNO3, InChI=1S/Li.NO3/c;2-1(3)4/q+1;-1

System: lithium nitrate; phases: Liquid, Air at 1 atmosphere
Property: Viscosity, Pa*s (Liquid); method: Oscillating viscometer
Temperature, K	Viscosity, Pa*s	uncertainty
544.9	0.00515	0.000315
554.5	0.004457	0.000272
571.7	0.004195	0.000256
592.1	0.003854	0.000236
595.9	0.003618	0.000221
597	0.00372	0.000227
601.3	0.003549	0.000217
603.3	0.003373	0.000207
619.2	0.003075	0.000188
623.2	0.003024	0.000185
627.2	0.00304	0.000186
662.7	0.002448	0.00015
688.8	0.002169	0.000138
689.2	0.002094	0.000134
