Measured thermophysical data. Temperature Dependence of Densities and Excess Molar Volumes of the Ternary Mixture (1-Butanol + Chloroform + Benzene) and its Binary Constituents (1-Butanol + Chloroform and 1-Butanol + Benzene)
Source: Int. J. Thermophys., 2008, 10.1007/s10765-008-0390-4
Compound 1: butan-1-ol, C4H10O, InChI=1S/C4H10O/c1-2-3-4-5/h5H,2-4H2,1H3, purity 99.5%
Compound 2: trichloromethane, CHCl3, InChI=1S/CHCl3/c2-1(3)4/h1H, purity 99.8%
Compound 3: benzene, C6H6, InChI=1S/C6H6/c1-2-4-6-5-3-1/h1-6H, purity 99.9%

System: butan-1-ol; phases: Liquid
Fixed: Pressure, kPa = 101
Property: Mass density, kg/m3 (Liquid); method: VIBTUB:UFactor:2
Temperature, K	Mass density, kg/m3	uncertainty
288.15	813.373	0.24
293.15	809.573	0.243
298.15	805.762	0.246
303.15	801.923	0.248
308.15	798.053	0.251
313.15	794.147	0.254

System: trichloromethane; phases: Liquid
Fixed: Pressure, kPa = 101
Property: Mass density, kg/m3 (Liquid); method: VIBTUB:UFactor:2
Temperature, K	Mass density, kg/m3	uncertainty
288.15	1498.077	0.469
293.15	1488.638	0.462
298.15	1479.148	0.454
303.15	1469.612	0.446
308.15	1460.025	0.438
313.15	1450.413	0.431

System: benzene; phases: Liquid
Fixed: Pressure, kPa = 101
Property: Mass density, kg/m3 (Liquid); method: VIBTUB:UFactor:2
Temperature, K	Mass density, kg/m3	uncertainty
288.15	884.246	0.154
293.15	878.918	0.158
298.15	873.582	0.162
303.15	868.233	0.167
308.15	862.871	0.171
313.15	857.498	0.175

System: trichloromethane + butan-1-ol; phases: Liquid
Fixed: Pressure, kPa = 101
Property: Mass density, kg/m3 (Liquid); method: VIBTUB:UFactor:2
Temperature, K	Mole fraction of butan-1-ol	Mass density, kg/m3	uncertainty
288.15	0	1498.077	0.469
288.15	0.0493	1458.967	0.467
288.15	0.0994	1420.117	0.439
288.15	0.1499	1381.858	0.411
288.15	0.2003	1344.302	0.385
288.15	0.2476	1309.654	0.36
288.15	0.279	1286.969	0.344
288.15	0.3474	1238.343	0.31
288.15	0.4003	1201.44	0.284
288.15	0.461	1159.744	0.256
288.15	0.4993	1133.81	0.239
288.15	0.5517	1098.6	0.217
288.15	0.5989	1067.377	0.197
288.15	0.651	1033.234	0.177
288.15	0.7008	1001.03	0.161
288.15	0.7485	970.42	0.174
288.15	0.7987	938.452	0.191
288.15	0.8495	906.492	0.21
288.15	0.8953	877.854	0.228
288.15	0.9475	845.53	0.248
288.15	1	813.373	0.24
293.15	0	1488.638	0.462
293.15	0.0493	1449.824	0.46
293.15	0.0994	1411.277	0.432
293.15	0.1499	1373.34	0.405
293.15	0.2003	1336.11	0.378
293.15	0.2476	1301.761	0.354
293.15	0.279	1279.278	0.337
293.15	0.3474	1231.07	0.304
293.15	0.4003	1194.482	0.279
293.15	0.461	1153.143	0.251
293.15	0.4993	1127.428	0.234
293.15	0.5517	1092.6	0.212
293.15	0.5989	1061.553	0.193
293.15	0.651	1027.696	0.174
293.15	0.7008	995.76	0.161
293.15	0.7485	965.404	0.176
293.15	0.7987	933.697	0.193
293.15	0.8495	901.999	0.212
293.15	0.8953	873.588	0.23
293.15	0.9475	841.51	0.25
293.15	1	809.573	0.243
298.15	0	1479.148	0.454
298.15	0.0493	1440.633	0.453
298.15	0.0994	1402.389	0.425
298.15	0.1499	1364.771	0.398
298.15	0.2003	1327.863	0.371
298.15	0.2476	1293.819	0.347
298.15	0.279	1271.534	0.331
298.15	0.3474	1223.746	0.298
298.15	0.4003	1187.479	0.273
298.15	0.461	1146.5	0.246
298.15	0.4993	1121.002	0.229
298.15	0.5517	1086.4	0.207
298.15	0.5989	1055.688	0.188
298.15	0.651	1022.116	0.17
298.15	0.7008	990.45	0.162
298.15	0.7485	960.349	0.178
298.15	0.7987	928.907	0.195
298.15	0.8495	897.472	0.214
298.15	0.8953	869.292	0.232
298.15	0.9475	837.462	0.252
298.15	1	805.762	0.246
303.15	0	1469.612	0.446
303.15	0.0493	1431.398	0.445
303.15	0.0994	1393.449	0.417
303.15	0.1499	1356.152	0.391
303.15	0.2003	1319.568	0.365
303.15	0.2476	1285.822	0.341
303.15	0.279	1263.746	0.325
303.15	0.3474	1216.374	0.292
303.15	0.4003	1180.425	0.267
303.15	0.461	1139.809	0.241
303.15	0.4993	1114.527	0.224
303.15	0.5517	1080.3	0.203
303.15	0.5989	1049.776	0.184
303.15	0.651	1016.495	0.166
303.15	0.7008	985.097	0.164
303.15	0.7485	955.255	0.179
303.15	0.7987	924.082	0.197
303.15	0.8495	892.91	0.216
303.15	0.8953	864.961	0.234
303.15	0.9475	833.386	0.254
303.15	1	801.923	0.248
308.15	0	1460.025	0.438
308.15	0.0493	1422.115	0.438
308.15	0.0994	1384.45	0.41
308.15	0.1499	1347.474	0.384
308.15	0.2003	1311.21	0.358
308.15	0.2476	1277.767	0.334
308.15	0.279	1255.896	0.318
308.15	0.3474	1208.943	0.286
308.15	0.4003	1173.313	0.262
308.15	0.461	1133.064	0.235
308.15	0.4993	1107.999	0.219
308.15	0.5517	1074	0.198
308.15	0.5989	1043.814	0.18
308.15	0.651	1010.818	0.162
308.15	0.7008	979.698	0.166
308.15	0.7485	950.115	0.181
308.15	0.7987	919.208	0.199
308.15	0.8495	888.303	0.218
308.15	0.8953	860.59	0.236
308.15	0.9475	829.272	0.257
308.15	1	798.053	0.251
313.15	0	1450.413	0.431
313.15	0.0493	1412.816	0.43
313.15	0.0994	1375.41	0.403
313.15	0.1499	1338.756	0.377
313.15	0.2003	1302.801	0.351
313.15	0.2476	1269.664	0.328
313.15	0.279	1248.018	0.312
313.15	0.3474	1201.478	0.28
313.15	0.4003	1166.161	0.256
313.15	0.461	1126.294	0.23
313.15	0.4993	1101.418	0.214
313.15	0.5517	1067.8	0.193
313.15	0.5989	1037.803	0.175
313.15	0.651	1005.107	0.158
313.15	0.7008	974.26	0.168
313.15	0.7485	944.94	0.183
313.15	0.7987	914.297	0.201
313.15	0.8495	883.67	0.22
313.15	0.8953	856.188	0.238
313.15	0.9475	825.138	0.259
313.15	1	794.147	0.254

System: butan-1-ol + benzene; phases: Liquid
Fixed: Pressure, kPa = 101
Property: Mass density, kg/m3 (Liquid); method: VIBTUB:UFactor:2
Temperature, K	Mole fraction of butan-1-ol	Mass density, kg/m3	uncertainty
288.15	0	884.246	0.154
288.15	0.0193	882.483	0.157
288.15	0.0534	879.595	0.159
288.15	0.1013	875.72	0.163
288.15	0.1509	871.829	0.167
288.15	0.2016	867.984	0.171
288.15	0.2018	867.955	0.171
288.15	0.25	864.382	0.175
288.15	0.2997	860.741	0.178
288.15	0.3532	856.936	0.183
288.15	0.4019	853.504	0.187
288.15	0.4525	850	0.191
288.15	0.4998	846.738	0.195
288.15	0.5532	843.129	0.199
288.15	0.6004	839.985	0.204
288.15	0.6493	836.693	0.208
288.15	0.701	833.239	0.212
288.15	0.7502	829.979	0.217
288.15	0.7945	827.051	0.221
288.15	0.8511	823.296	0.226
288.15	0.8961	820.299	0.231
288.15	0.951	816.663	0.236
288.15	1	813.373	0.24
293.15	0	878.918	0.158
293.15	0.0193	877.168	0.161
293.15	0.0534	874.309	0.163
293.15	0.1013	870.495	0.167
293.15	0.1509	866.677	0.171
293.15	0.2016	862.908	0.175
293.15	0.2018	862.874	0.175
293.15	0.25	859.372	0.178
293.15	0.2997	855.806	0.182
293.15	0.3532	852.081	0.186
293.15	0.4019	848.721	0.19
293.15	0.4525	845.3	0.194
293.15	0.4998	842.111	0.198
293.15	0.5532	838.594	0.203
293.15	0.6004	835.529	0.207
293.15	0.6493	832.317	0.211
293.15	0.701	828.949	0.216
293.15	0.7502	825.772	0.22
293.15	0.7945	822.92	0.224
293.15	0.8511	819.258	0.229
293.15	0.8961	816.336	0.233
293.15	0.951	812.791	0.239
293.15	1	809.573	0.243
298.15	0	873.582	0.162
298.15	0.0193	871.844	0.165
298.15	0.0534	869.007	0.167
298.15	0.1013	865.255	0.171
298.15	0.1509	861.506	0.175
298.15	0.2016	857.807	0.178
298.15	0.2018	857.776	0.179
298.15	0.25	854.344	0.182
298.15	0.2997	850.849	0.186
298.15	0.3532	847.201	0.19
298.15	0.4019	843.914	0.194
298.15	0.4525	840.574	0.198
298.15	0.4998	837.46	0.202
298.15	0.5532	834.03	0.206
298.15	0.6004	831.042	0.21
298.15	0.6493	827.91	0.214
298.15	0.701	824.631	0.219
298.15	0.7502	821.537	0.223
298.15	0.7945	818.759	0.227
298.15	0.8511	815.196	0.232
298.15	0.8961	812.348	0.236
298.15	0.951	808.897	0.241
298.15	1	805.762	0.246
303.15	0	868.233	0.167
303.15	0.0193	866.507	0.169
303.15	0.0534	863.694	0.171
303.15	0.1013	859.995	0.175
303.15	0.1509	856.309	0.179
303.15	0.2016	852.685	0.182
303.15	0.2018	852.651	0.182
303.15	0.25	849.285	0.186
303.15	0.2997	845.866	0.19
303.15	0.3532	842.294	0.194
303.15	0.4019	839.08	0.198
303.15	0.4525	835.817	0.202
303.15	0.4998	832.778	0.205
303.15	0.5532	829.436	0.21
303.15	0.6004	826.525	0.213
303.15	0.6493	823.473	0.218
303.15	0.701	820.282	0.222
303.15	0.7502	817.269	0.226
303.15	0.7945	814.569	0.23
303.15	0.8511	811.102	0.235
303.15	0.8961	808.331	0.239
303.15	0.951	804.977	0.244
303.15	1	801.923	0.248
308.15	0	862.871	0.171
308.15	0.0193	861.158	0.173
308.15	0.0534	858.36	0.176
308.15	0.1013	854.713	0.179
308.15	0.1509	851.089	0.183
308.15	0.2016	847.536	0.186
308.15	0.2018	847.499	0.186
308.15	0.25	844.201	0.19
308.15	0.2997	840.854	0.194
308.15	0.3532	837.357	0.198
308.15	0.4019	834.214	0.201
308.15	0.4525	831.029	0.205
308.15	0.4998	828.059	0.209
308.15	0.5532	824.804	0.213
308.15	0.6004	821.974	0.217
308.15	0.6493	819.001	0.221
308.15	0.701	815.895	0.225
308.15	0.7502	812.965	0.229
308.15	0.7945	810.343	0.233
308.15	0.8511	806.975	0.238
308.15	0.8961	804.274	0.242
308.15	0.951	801.025	0.247
308.15	1	798.053	0.251
313.15	0	857.498	0.175
313.15	0.0193	855.809	0.177
313.15	0.0534	853.019	0.18
313.15	0.1013	849.433	0.183
313.15	0.1509	845.861	0.187
313.15	0.2016	842.375	0.19
313.15	0.2018	842.342	0.19
313.15	0.25	839.11	0.194
313.15	0.2997	835.83	0.197
313.15	0.3532	832.4	0.201
313.15	0.4019	829.324	0.205
313.15	0.4525	826.217	0.209
313.15	0.4998	823.32	0.212
313.15	0.5532	820.157	0.217
313.15	0.6004	817.402	0.22
313.15	0.6493	814.449	0.224
313.15	0.701	811.483	0.228
313.15	0.7502	808.64	0.232
313.15	0.7945	806.094	0.236
313.15	0.8511	802.822	0.241
313.15	0.8961	800.189	0.245
313.15	0.951	797.051	0.25
313.15	1	794.147	0.254

System: trichloromethane + butan-1-ol + benzene; phases: Liquid
Fixed: Pressure, kPa = 101
Property: Mass density, kg/m3 (Liquid); method: VIBTUB:UFactor:2
Temperature, K	Mole fraction of butan-1-ol	Mole fraction of trichloromethane	Mass density, kg/m3	uncertainty
288.15	0.0186	0.902	1428.941	0.419
288.15	0.0203	0.7851	1351.079	0.377
288.15	0.0294	0.6816	1282.824	0.358
288.15	0.0405	0.5972	1228.764	0.354
288.15	0.041	0.8957	1422.419	0.416
288.15	0.0433	0.7983	1357.306	0.38
288.15	0.0547	0.498	1166.249	0.364
288.15	0.0588	0.7018	1293.355	0.36
288.15	0.0591	0.4023	1108.113	0.285
288.15	0.0615	0.8957	1420.354	0.415
288.15	0.0698	0.2996	1046.683	0.204
288.15	0.0787	0.201	989.208	0.138
288.15	0.0793	0.5994	1226.676	0.357
288.15	0.0803	0.798	1353.781	0.38
288.15	0.0809	0.8963	1418.925	0.415
288.15	0.0906	0.0999	931.435	0.133
288.15	0.1001	0.5004	1163.756	0.368
288.15	0.1197	0.3995	1101.288	0.284
288.15	0.1207	0.7997	1351.169	0.379
288.15	0.1217	0.6993	1286.139	0.359
288.15	0.1417	0.3001	1040.893	0.204
288.15	0.1587	0.598	1218.808	0.354
288.15	0.1605	0.7998	1347.822	0.378
288.15	0.1712	0.1977	979.833	0.144
288.15	0.1791	0.7991	1345.658	0.378
288.15	0.1793	0.0999	924.387	0.139
288.15	0.1801	0.6987	1280.679	0.358
288.15	0.1979	0.501	1155.872	0.365
288.15	0.2384	0.3991	1091.477	0.282
288.15	0.2388	0.5967	1211.706	0.354
288.15	0.2393	0.6997	1276.532	0.356
288.15	0.2669	0.6985	1273.712	0.356
288.15	0.2776	0.3061	1033.855	0.206
288.15	0.3	0.4971	1145.811	0.357
288.15	0.3199	0.2003	970.092	0.152
288.15	0.3206	0.5992	1206.986	0.35
288.15	0.3579	0.6015	1205.629	0.349
288.15	0.3606	0.4006	1083.361	0.281
288.15	0.3607	0.0993	910.702	0.153
288.15	0.3993	0.4995	1139.982	0.359
288.15	0.42	0.2995	1019.836	0.202
288.15	0.4498	0.5004	1137.082	0.359
288.15	0.479	0.4004	1074.927	0.276
288.15	0.4856	0.1974	956.866	0.161
288.15	0.5389	0.101	899.497	0.168
288.15	0.5411	0.3998	1070.364	0.276
288.15	0.5584	0.2992	1010.178	0.196
288.15	0.6289	0.2991	1005.673	0.197
288.15	0.6404	0.201	948.6	0.172
288.15	0.7128	0.102	888.415	0.183
288.15	0.7185	0.1999	942.9	0.176
288.15	0.8111	0.0999	881.131	0.192
293.15	0.0186	0.902	1420.062	0.412
293.15	0.0203	0.7851	1342.752	0.371
293.15	0.0294	0.6816	1275.166	0.352
293.15	0.0405	0.5972	1221.313	0.349
293.15	0.041	0.8957	1413.555	0.408
293.15	0.0433	0.7983	1348.934	0.373
293.15	0.0547	0.498	1159.228	0.359
293.15	0.0588	0.7018	1285.446	0.354
293.15	0.0591	0.4023	1101.474	0.281
293.15	0.0615	0.8957	1411.506	0.408
293.15	0.0698	0.2996	1040.436	0.2
293.15	0.0787	0.201	983.315	0.14
293.15	0.0793	0.5994	1219.254	0.352
293.15	0.0803	0.798	1345.434	0.373
293.15	0.0809	0.8963	1410.088	0.408
293.15	0.0906	0.0999	925.887	0.136
293.15	0.1001	0.5004	1156.78	0.364
293.15	0.1197	0.3995	1094.734	0.28
293.15	0.1207	0.7997	1342.891	0.372
293.15	0.1217	0.6993	1278.317	0.353
293.15	0.1417	0.3001	1034.746	0.201
293.15	0.1587	0.598	1211.497	0.349
293.15	0.1605	0.7998	1339.58	0.372
293.15	0.1712	0.1977	974.084	0.146
293.15	0.1791	0.7991	1337.448	0.372
293.15	0.1793	0.0999	918.97	0.143
293.15	0.1801	0.6987	1272.941	0.352
293.15	0.1979	0.501	1149.034	0.36
293.15	0.2384	0.3991	1085.106	0.278
293.15	0.2388	0.5967	1204.553	0.349
293.15	0.2393	0.6997	1268.877	0.35
293.15	0.2669	0.6985	1266.105	0.35
293.15	0.2776	0.3061	1027.894	0.203
293.15	0.3	0.4971	1139.14	0.352
293.15	0.3199	0.2003	964.564	0.154
293.15	0.3206	0.5992	1199.949	0.344
293.15	0.3579	0.6015	1198.647	0.344
293.15	0.3606	0.4006	1077.169	0.277
293.15	0.3607	0.0993	905.562	0.157
293.15	0.3993	0.4995	1133.454	0.354
293.15	0.42	0.2995	1014.123	0.199
293.15	0.4498	0.5004	1130.614	0.355
293.15	0.479	0.4004	1068.925	0.272
293.15	0.4856	0.1974	951.609	0.164
293.15	0.5389	0.101	894.582	0.171
293.15	0.5411	0.3998	1064.458	0.272
293.15	0.5584	0.2992	1004.682	0.193
293.15	0.6289	0.2991	1000.288	0.194
293.15	0.6404	0.201	943.582	0.174
293.15	0.7128	0.102	883.84	0.186
293.15	0.7185	0.1999	938.013	0.179
293.15	0.8111	0.0999	876.597	0.195
298.15	0.0186	0.902	1411.118	0.404
298.15	0.0203	0.7851	1334.382	0.364
298.15	0.0294	0.6816	1267.429	0.346
298.15	0.0405	0.5972	1213.828	0.344
298.15	0.041	0.8957	1404.643	0.401
298.15	0.0433	0.7983	1340.52	0.367
298.15	0.0547	0.498	1152.171	0.355
298.15	0.0588	0.7018	1277.502	0.348
298.15	0.0591	0.4023	1094.806	0.277
298.15	0.0615	0.8957	1402.612	0.401
298.15	0.0698	0.2996	1034.161	0.197
298.15	0.0787	0.201	977.401	0.142
298.15	0.0793	0.5994	1211.791	0.346
298.15	0.0803	0.798	1337.037	0.366
298.15	0.0809	0.8963	1401.202	0.401
298.15	0.0906	0.0999	920.323	0.14
298.15	0.1001	0.5004	1149.765	0.359
298.15	0.1197	0.3995	1088.148	0.276
298.15	0.1207	0.7997	1334.546	0.365
298.15	0.1217	0.6993	1270.448	0.347
298.15	0.1417	0.3001	1028.567	0.198
298.15	0.1587	0.598	1204.145	0.344
298.15	0.1605	0.7998	1331.279	0.365
298.15	0.1712	0.1977	968.308	0.148
298.15	0.1791	0.7991	1329.18	0.365
298.15	0.1793	0.0999	913.529	0.147
298.15	0.1801	0.6987	1265.158	0.346
298.15	0.1979	0.501	1142.154	0.356
298.15	0.2384	0.3991	1078.697	0.274
298.15	0.2388	0.5967	1197.33	0.343
298.15	0.2393	0.6997	1261.173	0.344
298.15	0.2669	0.6985	1258.449	0.344
298.15	0.2776	0.3061	1021.894	0.2
298.15	0.3	0.4971	1132.428	0.347
298.15	0.3199	0.2003	959.004	0.157
298.15	0.3206	0.5992	1192.843	0.339
298.15	0.3579	0.6015	1191.589	0.339
298.15	0.3606	0.4006	1070.941	0.273
298.15	0.3607	0.0993	900.395	0.16
298.15	0.3993	0.4995	1126.878	0.35
298.15	0.42	0.2995	1008.37	0.196
298.15	0.4498	0.5004	1124.115	0.35
298.15	0.479	0.4004	1062.876	0.268
298.15	0.4856	0.1974	946.317	0.166
298.15	0.5389	0.101	889.639	0.175
298.15	0.5411	0.3998	1058.51	0.268
298.15	0.5584	0.2992	999.147	0.19
298.15	0.6289	0.2991	994.861	0.194
298.15	0.6404	0.201	938.529	0.177
298.15	0.7128	0.102	879.232	0.189
298.15	0.7185	0.1999	933.09	0.181
298.15	0.8111	0.0999	872.028	0.198
303.15	0.0186	0.902	1402.114	0.397
303.15	0.0203	0.7851	1325.972	0.357
303.15	0.0294	0.6816	1259.585	0.34
303.15	0.0405	0.5972	1206.307	0.339
303.15	0.041	0.8957	1395.692	0.394
303.15	0.0433	0.7983	1332.062	0.36
303.15	0.0547	0.498	1145.079	0.35
303.15	0.0588	0.7018	1269.511	0.342
303.15	0.0591	0.4023	1088.107	0.273
303.15	0.0615	0.8957	1393.672	0.394
303.15	0.0698	0.2996	1027.856	0.194
303.15	0.0787	0.201	971.46	0.144
303.15	0.0793	0.5994	1204.292	0.341
303.15	0.0803	0.798	1328.606	0.36
303.15	0.0809	0.8963	1392.267	0.394
303.15	0.0906	0.0999	914.732	0.144
303.15	0.1001	0.5004	1142.715	0.354
303.15	0.1197	0.3995	1081.525	0.272
303.15	0.1207	0.7997	1326.143	0.359
303.15	0.1217	0.6993	1262.54	0.341
303.15	0.1417	0.3001	1022.349	0.194
303.15	0.1587	0.598	1196.748	0.338
303.15	0.1605	0.7998	1322.923	0.358
303.15	0.1712	0.1977	962.5	0.15
303.15	0.1791	0.7991	1320.855	0.358
303.15	0.1793	0.0999	908.057	0.15
303.15	0.1801	0.6987	1257.328	0.34
303.15	0.1979	0.501	1135.231	0.351
303.15	0.2384	0.3991	1072.249	0.27
303.15	0.2388	0.5967	1190.05	0.338
303.15	0.2393	0.6997	1253.417	0.337
303.15	0.2669	0.6985	1250.742	0.337
303.15	0.2776	0.3061	1015.857	0.196
303.15	0.3	0.4971	1125.667	0.343
303.15	0.3199	0.2003	953.408	0.159
303.15	0.3206	0.5992	1185.676	0.334
303.15	0.3579	0.6015	1184.465	0.333
303.15	0.3606	0.4006	1064.666	0.269
303.15	0.3607	0.0993	895.193	0.164
303.15	0.3993	0.4995	1120.257	0.345
303.15	0.42	0.2995	1002.577	0.193
303.15	0.4498	0.5004	1117.57	0.345
303.15	0.479	0.4004	1056.782	0.264
303.15	0.4856	0.1974	940.99	0.169
303.15	0.5389	0.101	884.667	0.178
303.15	0.5411	0.3998	1052.519	0.265
303.15	0.5584	0.2992	993.567	0.191
303.15	0.6289	0.2991	989.396	0.195
303.15	0.6404	0.201	933.435	0.179
303.15	0.7128	0.102	874.591	0.192
303.15	0.7185	0.1999	928.13	0.183
303.15	0.8111	0.0999	867.437	0.201
308.15	0.0186	0.902	1393.049	0.39
308.15	0.0203	0.7851	1317.514	0.351
308.15	0.0294	0.6816	1251.642	0.334
308.15	0.0405	0.5972	1198.745	0.333
308.15	0.041	0.8957	1386.69	0.387
308.15	0.0433	0.7983	1323.565	0.353
308.15	0.0547	0.498	1137.945	0.345
308.15	0.0588	0.7018	1261.47	0.336
308.15	0.0591	0.4023	1081.372	0.269
308.15	0.0615	0.8957	1384.679	0.386
308.15	0.0698	0.2996	1021.52	0.19
308.15	0.0787	0.201	965.493	0.146
308.15	0.0793	0.5994	1196.753	0.335
308.15	0.0803	0.798	1320.13	0.353
308.15	0.0809	0.8963	1383.274	0.386
308.15	0.0906	0.0999	909.117	0.148
308.15	0.1001	0.5004	1135.626	0.349
308.15	0.1197	0.3995	1074.857	0.268
308.15	0.1207	0.7997	1317.691	0.352
308.15	0.1217	0.6993	1254.576	0.335
308.15	0.1417	0.3001	1016.091	0.191
308.15	0.1587	0.598	1189.307	0.333
308.15	0.1605	0.7998	1314.511	0.352
308.15	0.1712	0.1977	956.662	0.153
308.15	0.1791	0.7991	1312.472	0.351
308.15	0.1793	0.0999	902.557	0.154
308.15	0.1801	0.6987	1249.442	0.334
308.15	0.1979	0.501	1128.264	0.346
308.15	0.2384	0.3991	1065.755	0.266
308.15	0.2388	0.5967	1182.714	0.332
308.15	0.2393	0.6997	1245.604	0.331
308.15	0.2669	0.6985	1242.979	0.331
308.15	0.2776	0.3061	1009.777	0.193
308.15	0.3	0.4971	1118.863	0.338
308.15	0.3199	0.2003	947.777	0.161
308.15	0.3206	0.5992	1178.458	0.328
308.15	0.3579	0.6015	1177.285	0.328
308.15	0.3606	0.4006	1058.343	0.266
308.15	0.3607	0.0993	889.956	0.168
308.15	0.3993	0.4995	1113.58	0.34
308.15	0.42	0.2995	996.737	0.192
308.15	0.4498	0.5004	1110.971	0.341
308.15	0.479	0.4004	1050.635	0.26
308.15	0.4856	0.1974	935.62	0.171
308.15	0.5389	0.101	879.675	0.181
308.15	0.5411	0.3998	1046.476	0.261
308.15	0.5584	0.2992	987.945	0.192
308.15	0.6289	0.2991	983.881	0.196
308.15	0.6404	0.201	928.301	0.181
308.15	0.7128	0.102	869.909	0.195
308.15	0.7185	0.1999	923.125	0.186
308.15	0.8111	0.0999	862.844	0.205
313.15	0.0186	0.902	1383.942	0.383
313.15	0.0203	0.7851	1309.028	0.344
313.15	0.0294	0.6816	1243.655	0.328
313.15	0.0405	0.5972	1191.159	0.328
313.15	0.041	0.8957	1377.672	0.38
313.15	0.0433	0.7983	1315.067	0.346
313.15	0.0547	0.498	1130.771	0.34
313.15	0.0588	0.7018	1253.412	0.33
313.15	0.0591	0.4023	1074.634	0.265
313.15	0.0615	0.8957	1375.665	0.379
313.15	0.0698	0.2996	1015.161	0.187
313.15	0.0787	0.201	959.515	0.149
313.15	0.0793	0.5994	1189.204	0.33
313.15	0.0803	0.798	1311.632	0.346
313.15	0.0809	0.8963	1374.24	0.379
313.15	0.0906	0.0999	903.502	0.152
313.15	0.1001	0.5004	1128.523	0.344
313.15	0.1197	0.3995	1068.159	0.263
313.15	0.1207	0.7997	1309.22	0.345
313.15	0.1217	0.6993	1246.591	0.328
313.15	0.1417	0.3001	1009.798	0.188
313.15	0.1587	0.598	1181.862	0.327
313.15	0.1605	0.7998	1306.053	0.345
313.15	0.1712	0.1977	950.816	0.155
313.15	0.1791	0.7991	1304.056	0.345
313.15	0.1793	0.0999	897.04	0.158
313.15	0.1801	0.6987	1241.53	0.328
313.15	0.1979	0.501	1121.27	0.341
313.15	0.2384	0.3991	1059.428	0.262
313.15	0.2388	0.5967	1175.356	0.327
313.15	0.2393	0.6997	1237.743	0.325
313.15	0.2669	0.6985	1235.174	0.325
313.15	0.2776	0.3061	1003.675	0.19
313.15	0.3	0.4971	1112.032	0.334
313.15	0.3199	0.2003	942.119	0.164
313.15	0.3206	0.5992	1171.241	0.323
313.15	0.3579	0.6015	1170.087	0.323
313.15	0.3606	0.4006	1052	0.261
313.15	0.3607	0.0993	884.7	0.171
313.15	0.3993	0.4995	1106.856	0.336
313.15	0.42	0.2995	990.878	0.192
313.15	0.4498	0.5004	1104.344	0.336
313.15	0.479	0.4004	1044.466	0.257
313.15	0.4856	0.1974	930.242	0.174
313.15	0.5389	0.101	874.675	0.185
313.15	0.5411	0.3998	1040.403	0.257
313.15	0.5584	0.2992	982.294	0.194
313.15	0.6289	0.2991	978.341	0.198
313.15	0.6404	0.201	923.143	0.184
313.15	0.7128	0.102	865.196	0.199
313.15	0.7185	0.1999	918.097	0.188
313.15	0.8111	0.0999	858.299	0.208
