Measured thermophysical data. Thermophysical Properties of Mixtures of Tetrahydropyran with Chlorobutanes
Source: Int. J. Thermophys., 2006, 10.1007/s10765-006-0100-z
Compound 1: 1-chlorobutane, C4H9Cl, InChI=1S/C4H9Cl/c1-2-3-4-5/h2-4H2,1H3, purity 99%
Compound 2: 2-chloro-2-methylpropane, C4H9Cl, InChI=1S/C4H9Cl/c1-4(2,3)5/h1-3H3, purity 99%
Compound 3: 2-chlorobutane, C4H9Cl, InChI=1S/C4H9Cl/c1-3-4(2)5/h4H,3H2,1-2H3, purity 99%
Compound 4: 1-chloro-2-methylpropane, C4H9Cl, InChI=1S/C4H9Cl/c1-4(2)3-5/h4H,3H2,1-2H3, purity 99%
Compound 5: tetrahydropyran, C5H10O, InChI=1S/C5H10O/c1-2-4-6-5-3-1/h1-5H2, purity 99%

System: 1-chlorobutane; phases: Liquid
Fixed: Pressure, kPa = 101
Property: Kinematic viscosity, m2/s (Liquid); method: CAPTUB:UFactor:2
Temperature, K	Kinematic viscosity, m2/s	uncertainty
298.15	4.783e-07	7.1e-09
313.15	4.214e-07	6.5e-09

System: 1-chlorobutane; phases: Liquid
Fixed: Pressure, kPa = 101
Property: Mass density, kg/m3 (Liquid); method: Vibrating tube method
Temperature, K	Mass density, kg/m3	uncertainty
298.15	880.69	2.05
313.15	863.82	2.05

System: 2-chloro-2-methylpropane; phases: Liquid
Fixed: Pressure, kPa = 101
Property: Kinematic viscosity, m2/s (Liquid); method: CAPTUB:UFactor:2
Temperature, K	Kinematic viscosity, m2/s	uncertainty
298.15	5.68e-07	8.2e-09
313.15	4.775e-07	7.1e-09

System: 2-chloro-2-methylpropane; phases: Liquid
Fixed: Pressure, kPa = 101
Property: Mass density, kg/m3 (Liquid); method: Vibrating tube method
Temperature, K	Mass density, kg/m3	uncertainty
298.15	836.45	2.05
313.15	818.31	2.04

System: 2-chlorobutane; phases: Liquid
Fixed: Pressure, kPa = 101
Property: Kinematic viscosity, m2/s (Liquid); method: CAPTUB:UFactor:2
Temperature, K	Kinematic viscosity, m2/s	uncertainty
298.15	4.54e-07	6.8e-09
313.15	3.965e-07	6.2e-09

System: 2-chlorobutane; phases: Liquid
Fixed: Pressure, kPa = 101
Property: Mass density, kg/m3 (Liquid); method: Vibrating tube method
Temperature, K	Mass density, kg/m3	uncertainty
298.15	867.37	2.05
313.15	850.13	2.05

System: 1-chloro-2-methylpropane; phases: Liquid
Fixed: Pressure, kPa = 101
Property: Kinematic viscosity, m2/s (Liquid); method: CAPTUB:UFactor:2
Temperature, K	Kinematic viscosity, m2/s	uncertainty
298.15	4.93e-07	7.3e-09
313.15	4.292e-07	6.6e-09

System: 1-chloro-2-methylpropane; phases: Liquid
Fixed: Pressure, kPa = 101
Property: Mass density, kg/m3 (Liquid); method: Vibrating tube method
Temperature, K	Mass density, kg/m3	uncertainty
298.15	871.13	2.05
313.15	853.51	2.05

System: tetrahydropyran; phases: Liquid
Fixed: Pressure, kPa = 101
Property: Kinematic viscosity, m2/s (Liquid); method: CAPTUB:UFactor:2
Temperature, K	Kinematic viscosity, m2/s	uncertainty
298.15	9.1e-07	1.22e-08
313.15	7.571e-07	1.04e-08

System: tetrahydropyran; phases: Liquid
Fixed: Pressure, kPa = 101
Property: Mass density, kg/m3 (Liquid); method: Vibrating tube method
Temperature, K	Mass density, kg/m3	uncertainty
298.15	878.81	2.05
313.15	863.67	2.05

System: tetrahydropyran + 2-chloro-2-methylpropane; phases: Liquid
Fixed: Pressure, kPa = 101
Property: Kinematic viscosity, m2/s (Liquid); method: CAPTUB:UFactor:2
Temperature, K	Mole fraction of tetrahydropyran	Kinematic viscosity, m2/s	uncertainty
298.15	0	5.68e-07	8.2e-09
298.15	0.0614	5.84e-07	8.4e-09
298.15	0.1075	5.961e-07	8.5e-09
298.15	0.2173	6.274e-07	8.9e-09
298.15	0.3205	6.57e-07	9.3e-09
298.15	0.42	6.879e-07	9.6e-09
298.15	0.5176	7.198e-07	1e-08
298.15	0.6155	7.54e-07	1.04e-08
298.15	0.7156	7.908e-07	1.08e-08
298.15	0.8277	8.349e-07	1.14e-08
298.15	0.9097	8.699e-07	1.18e-08
298.15	0.9547	8.894e-07	1.2e-08
298.15	1	9.1e-07	1.22e-08
313.15	0	4.775e-07	7.1e-09
313.15	0.0451	4.872e-07	7.2e-09
313.15	0.0887	4.969e-07	7.4e-09
313.15	0.1978	5.209e-07	7.6e-09
313.15	0.3053	5.466e-07	7.9e-09
313.15	0.3972	5.699e-07	8.2e-09
313.15	0.5024	5.985e-07	8.6e-09
313.15	0.6359	6.363e-07	9e-09
313.15	0.7056	6.575e-07	9.3e-09
313.15	0.796	6.859e-07	9.6e-09
313.15	0.9063	7.23e-07	1e-08
313.15	0.9526	7.397e-07	1.02e-08
313.15	1	7.571e-07	1.04e-08

System: tetrahydropyran + 2-chloro-2-methylpropane; phases: Liquid
Fixed: Pressure, kPa = 101
Property: Mass density, kg/m3 (Liquid); method: Vibrating tube method
Temperature, K	Mole fraction of tetrahydropyran	Mass density, kg/m3	uncertainty
298.15	0	836.45	2.05
298.15	0.0324	838.08	2.05
298.15	0.1086	842.07	2.05
298.15	0.2097	847.11	2.05
298.15	0.2891	851.05	2.05
298.15	0.4276	857.41	2.05
298.15	0.496	860.32	2.05
298.15	0.6107	864.98	2.05
298.15	0.6483	866.46	2.05
298.15	0.8093	872.39	2.05
298.15	0.8606	874.22	2.05
298.15	0.954	877.25	2.05
298.15	1	878.81	2.05
313.15	0	818.31	2.04
313.15	0.0584	821.7	2.04
313.15	0.0875	823.35	2.04
313.15	0.1943	829.15	2.05
313.15	0.3028	834.83	2.05
313.15	0.4249	840.83	2.05
313.15	0.4929	843.99	2.05
313.15	0.6093	849.16	2.05
313.15	0.7052	853.15	2.05
313.15	0.7988	856.89	2.05
313.15	0.9097	860.95	2.05
313.15	0.9614	862.64	2.05
313.15	1	863.67	2.05

System: 2-chlorobutane + tetrahydropyran; phases: Liquid
Fixed: Pressure, kPa = 101
Property: Kinematic viscosity, m2/s (Liquid); method: CAPTUB:UFactor:2
Temperature, K	Mole fraction of tetrahydropyran	Kinematic viscosity, m2/s	uncertainty
298.15	0	4.54e-07	6.8e-09
298.15	0.0605	4.657e-07	7e-09
298.15	0.1166	4.805e-07	7.2e-09
298.15	0.2131	5.081e-07	7.5e-09
298.15	0.3174	5.425e-07	7.9e-09
298.15	0.4088	5.751e-07	8.3e-09
298.15	0.4994	6.111e-07	8.7e-09
298.15	0.6122	6.62e-07	9.3e-09
298.15	0.7108	7.136e-07	9.9e-09
298.15	0.8059	7.687e-07	1.06e-08
298.15	0.9023	8.336e-07	1.13e-08
298.15	0.9549	8.729e-07	1.18e-08
298.15	1	9.1e-07	1.22e-08
313.15	0	3.965e-07	6.2e-09
313.15	0.0605	4.093e-07	6.3e-09
313.15	0.1166	4.22e-07	6.5e-09
313.15	0.2131	4.454e-07	6.7e-09
313.15	0.3174	4.72e-07	7.1e-09
313.15	0.4088	4.971e-07	7.4e-09
313.15	0.4994	5.253e-07	7.7e-09
313.15	0.6122	5.656e-07	8.2e-09
313.15	0.7108	6.059e-07	8.6e-09
313.15	0.8059	6.485e-07	9.2e-09
313.15	0.9023	6.975e-07	9.7e-09
313.15	0.9549	7.28e-07	1.01e-08
313.15	1	7.571e-07	1.04e-08

System: 2-chlorobutane + tetrahydropyran; phases: Liquid
Fixed: Pressure, kPa = 101
Property: Mass density, kg/m3 (Liquid); method: Vibrating tube method
Temperature, K	Mole fraction of tetrahydropyran	Mass density, kg/m3	uncertainty
298.15	0	867.37	2.05
298.15	0.0525	868.05	2.05
298.15	0.1035	869.06	2.05
298.15	0.1947	870.26	2.05
298.15	0.3042	871.8	2.05
298.15	0.4091	872.95	2.05
298.15	0.5025	874.28	2.05
298.15	0.5947	875.42	2.05
298.15	0.7116	876.72	2.05
298.15	0.809	877.46	2.05
298.15	0.8917	878.36	2.05
298.15	0.9599	878.55	2.05
298.15	1	878.81	2.05
313.15	0	850.13	2.05
313.15	0.0605	851.11	2.05
313.15	0.1166	852.02	2.05
313.15	0.2131	853.59	2.05
313.15	0.3174	855.4	2.05
313.15	0.4088	857	2.05
313.15	0.4994	858.35	2.05
313.15	0.6122	859.58	2.05
313.15	0.7108	861.03	2.05
313.15	0.8059	862.1	2.05
313.15	0.9023	862.9	2.05
313.15	0.9549	863.45	2.05
313.15	1	863.67	2.05

System: tetrahydropyran + 1-chloro-2-methylpropane; phases: Liquid
Fixed: Pressure, kPa = 101
Property: Kinematic viscosity, m2/s (Liquid); method: CAPTUB:UFactor:2
Temperature, K	Mole fraction of tetrahydropyran	Kinematic viscosity, m2/s	uncertainty
298.15	0	4.93e-07	7.3e-09
298.15	0.054	5.063e-07	7.5e-09
298.15	0.1069	5.193e-07	7.6e-09
298.15	0.2033	5.457e-07	7.9e-09
298.15	0.311	5.776e-07	8.3e-09
298.15	0.4126	6.112e-07	8.7e-09
298.15	0.504	6.445e-07	9.1e-09
298.15	0.595	6.816e-07	9.5e-09
298.15	0.6954	7.27e-07	1.01e-08
298.15	0.8028	7.826e-07	1.07e-08
298.15	0.9066	8.464e-07	1.15e-08
298.15	0.9578	8.797e-07	1.19e-08
298.15	1	9.1e-07	1.22e-08
313.15	0	4.292e-07	6.6e-09
313.15	0.054	4.398e-07	6.7e-09
313.15	0.1069	4.509e-07	6.8e-09
313.15	0.2033	4.718e-07	7.1e-09
313.15	0.311	4.967e-07	7.4e-09
313.15	0.4126	5.231e-07	7.7e-09
313.15	0.504	5.502e-07	8e-09
313.15	0.595	5.796e-07	8.3e-09
313.15	0.6954	6.156e-07	8.8e-09
313.15	0.8028	6.605e-07	9.3e-09
313.15	0.9066	7.068e-07	9.8e-09
313.15	0.9578	7.332e-07	1.02e-08
313.15	1	7.571e-07	1.04e-08

System: tetrahydropyran + 1-chloro-2-methylpropane; phases: Liquid
Fixed: Pressure, kPa = 101
Property: Mass density, kg/m3 (Liquid); method: Vibrating tube method
Temperature, K	Mole fraction of tetrahydropyran	Mass density, kg/m3	uncertainty
298.15	0	871.13	2.05
298.15	0.048	871.69	2.05
298.15	0.1084	872.39	2.05
298.15	0.212	873.53	2.05
298.15	0.29	874.38	2.05
298.15	0.3951	875.37	2.05
298.15	0.5062	876.3	2.05
298.15	0.6273	877.23	2.05
298.15	0.6897	877.63	2.05
298.15	0.8111	878.26	2.05
298.15	0.9088	878.68	2.05
298.15	0.952	878.79	2.05
298.15	1	878.81	2.05
313.15	0	853.51	2.05
313.15	0.0432	854.17	2.05
313.15	0.0934	854.93	2.05
313.15	0.1923	856.35	2.05
313.15	0.3025	857.83	2.05
313.15	0.406	859.08	2.05
313.15	0.5018	860.14	2.05
313.15	0.6079	861.19	2.05
313.15	0.7238	862.24	2.05
313.15	0.7895	862.78	2.05
313.15	0.8874	863.42	2.05
313.15	0.9463	863.68	2.05
313.15	1	863.67	2.05

System: 1-chlorobutane + tetrahydropyran; phases: Liquid
Fixed: Pressure, kPa = 101
Property: Kinematic viscosity, m2/s (Liquid); method: CAPTUB:UFactor:2
Temperature, K	Mole fraction of tetrahydropyran	Kinematic viscosity, m2/s	uncertainty
298.15	0	4.783e-07	7.1e-09
298.15	0.0243	4.835e-07	7.2e-09
298.15	0.1039	5.023e-07	7.4e-09
298.15	0.2058	5.293e-07	7.7e-09
298.15	0.307	5.59e-07	8.1e-09
298.15	0.3984	5.888e-07	8.4e-09
298.15	0.5077	6.296e-07	8.9e-09
298.15	0.6038	6.685e-07	9.4e-09
298.15	0.7064	7.176e-07	1e-08
298.15	0.7994	7.682e-07	1.06e-08
298.15	0.9058	8.374e-07	1.14e-08
298.15	0.9498	8.698e-07	1.18e-08
298.15	1	9.1e-07	1.22e-08
313.15	0	4.214e-07	6.5e-09
313.15	0.0243	4.276e-07	6.5e-09
313.15	0.1039	4.418e-07	6.7e-09
313.15	0.2058	4.629e-07	7e-09
313.15	0.307	4.855e-07	7.2e-09
313.15	0.3984	5.09e-07	7.5e-09
313.15	0.5077	5.404e-07	7.9e-09
313.15	0.6038	5.717e-07	8.2e-09
313.15	0.7064	6.101e-07	8.7e-09
313.15	0.7994	6.489e-07	9.2e-09
313.15	0.9058	7.01e-07	9.8e-09
313.15	0.9498	7.25e-07	1.01e-08
313.15	1	7.571e-07	1.04e-08

System: 1-chlorobutane + tetrahydropyran; phases: Liquid
Fixed: Pressure, kPa = 101
Property: Mass density, kg/m3 (Liquid); method: Vibrating tube method
Temperature, K	Mole fraction of tetrahydropyran	Mass density, kg/m3	uncertainty
298.15	0	880.69	2.05
298.15	0.0521	880.67	2.05
298.15	0.1006	880.66	2.05
298.15	0.1949	880.62	2.05
298.15	0.2549	880.59	2.05
298.15	0.3774	880.48	2.05
298.15	0.5035	880.26	2.05
298.15	0.5948	880.06	2.05
298.15	0.661	879.87	2.05
298.15	0.7893	879.49	2.05
298.15	0.9203	879.07	2.05
298.15	0.9666	878.91	2.05
298.15	1	878.81	2.05
313.15	0	863.82	2.05
313.15	0.0348	863.98	2.05
313.15	0.0899	864.19	2.05
313.15	0.1717	864.39	2.05
313.15	0.2933	864.54	2.05
313.15	0.413	864.6	2.05
313.15	0.4926	864.61	2.05
313.15	0.6026	864.59	2.05
313.15	0.7085	864.52	2.05
313.15	0.8006	864.45	2.05
313.15	0.899	864.22	2.05
313.15	0.9724	863.88	2.05
313.15	1	863.67	2.05
