Measured thermophysical data. Densities and Volumetric Properties of Binary Mixtures of Aniline with 1-Propanol, 2-Propanol, 2-Methyl-1-Propanol, and 2-Methyl-2-Propanol at Temperatures from 293.15 to 318.15 K
Source: Int. J. Thermophys., 2007, 10.1007/s10765-007-0204-0
Compound 1: aniline, C6H7N, InChI=1S/C6H7N/c7-6-4-2-1-3-5-6/h1-5H,7H2, purity 99.6%
Compound 2: propan-1-ol, C3H8O, InChI=1S/C3H8O/c1-2-3-4/h4H,2-3H2,1H3, purity 99.6%
Compound 3: propan-2-ol, C3H8O, InChI=1S/C3H8O/c1-3(2)4/h3-4H,1-2H3, purity 99.6%
Compound 4: 2-methyl-1-propanol, C4H10O, InChI=1S/C4H10O/c1-4(2)3-5/h4-5H,3H2,1-2H3, purity 99.5%
Compound 5: 2-methylpropan-2-ol, C4H10O, InChI=1S/C4H10O/c1-4(2,3)5/h5H,1-3H3, purity 99.3%

System: aniline; phases: Liquid
Fixed: Pressure, kPa = 101
Property: Mass density, kg/m3 (Liquid); method: Pycnometric method
Temperature, K	Mass density, kg/m3	uncertainty
293.15	1021.71	0.27
298.15	1017.44	0.28
303.15	1013.17	0.29
308.15	1008.9	0.3
313.15	1004.63	0.31
318.15	1000.36	0.32

System: propan-1-ol; phases: Liquid
Fixed: Pressure, kPa = 101
Property: Mass density, kg/m3 (Liquid); method: Pycnometric method
Temperature, K	Mass density, kg/m3	uncertainty
293.15	803.71	0.19
298.15	799.74	0.2
303.15	795.77	0.21
308.15	791.8	0.22
313.15	787.83	0.23
318.15	783.86	0.24

System: propan-2-ol; phases: Liquid
Fixed: Pressure, kPa = 101
Property: Mass density, kg/m3 (Liquid); method: Pycnometric method
Temperature, K	Mass density, kg/m3	uncertainty
293.15	784.96	0.19
298.15	780.75	0.2
303.15	776.54	0.21
308.15	772.32	0.22
313.15	768.11	0.23
318.15	763.9	0.24

System: 2-methyl-1-propanol; phases: Liquid
Fixed: Pressure, kPa = 101
Property: Mass density, kg/m3 (Liquid); method: Pycnometric method
Temperature, K	Mass density, kg/m3	uncertainty
293.15	801.48	0.2
298.15	797.54	0.21
303.15	793.6	0.22
308.15	789.66	0.23
313.15	785.72	0.24
318.15	781.78	0.25

System: 2-methylpropan-2-ol; phases: Liquid
Fixed: Pressure, kPa = 101
Property: Mass density, kg/m3 (Liquid); method: Pycnometric method
Temperature, K	Mass density, kg/m3	uncertainty
293.15	785.75	0.23
298.15	780.63	0.24
303.15	775.51	0.25
308.15	770.39	0.26
313.15	765.26	0.26
318.15	760.13	0.27

System: aniline + propan-1-ol; phases: Liquid
Fixed: Pressure, kPa = 101
Property: Mass density, kg/m3 (Liquid); method: Pycnometric method
Temperature, K	Mole fraction of aniline	Mass density, kg/m3	uncertainty
293.15	0	803.71	0.19
293.15	0.0582	819.8	0.21
293.15	0.1177	835.75	0.21
293.15	0.1628	847.49	0.22
293.15	0.2056	858.38	0.22
293.15	0.2582	871.43	0.22
293.15	0.3156	885.26	0.23
293.15	0.3612	895.95	0.23
293.15	0.4112	907.36	0.24
293.15	0.4585	917.88	0.24
293.15	0.5106	929.18	0.24
293.15	0.5574	939.05	0.25
293.15	0.6141	950.71	0.25
293.15	0.6603	959.93	0.25
293.15	0.7209	971.73	0.26
293.15	0.7646	980.01	0.26
293.15	0.8114	988.68	0.26
293.15	0.8624	997.9	0.27
293.15	0.9041	1005.28	0.27
293.15	0.9525	1013.66	0.27
293.15	1	1021.71	0.27
298.15	0	799.74	0.2
298.15	0.0582	815.77	0.22
298.15	0.1177	831.66	0.22
298.15	0.1628	843.36	0.23
298.15	0.2056	854.21	0.23
298.15	0.2582	867.22	0.23
298.15	0.3156	881.01	0.24
298.15	0.3612	891.67	0.24
298.15	0.4112	903.06	0.25
298.15	0.4585	913.56	0.25
298.15	0.5106	924.84	0.25
298.15	0.5574	934.71	0.26
298.15	0.6141	946.36	0.26
298.15	0.6603	955.59	0.26
298.15	0.7209	967.39	0.27
298.15	0.7646	975.67	0.27
298.15	0.8114	984.34	0.27
298.15	0.8624	993.58	0.28
298.15	0.9041	1000.97	0.28
298.15	0.9525	1009.37	0.28
298.15	1	1017.44	0.28
303.15	0	795.77	0.21
303.15	0.0582	811.74	0.23
303.15	0.1177	827.56	0.23
303.15	0.1628	839.22	0.24
303.15	0.2056	850.04	0.24
303.15	0.2582	863.01	0.24
303.15	0.3156	876.76	0.25
303.15	0.3612	887.39	0.25
303.15	0.4112	898.76	0.26
303.15	0.4585	909.24	0.26
303.15	0.5106	920.5	0.26
303.15	0.5574	930.36	0.27
303.15	0.6141	941.99	0.27
303.15	0.6603	951.22	0.27
303.15	0.7209	963.02	0.28
303.15	0.7646	971.31	0.28
303.15	0.8114	980	0.28
303.15	0.8624	989.25	0.29
303.15	0.9041	996.66	0.29
303.15	0.9525	1005.08	0.29
303.15	1	1013.17	0.29
308.15	0	791.8	0.22
308.15	0.0582	807.7	0.24
308.15	0.1177	823.47	0.24
308.15	0.1628	835.09	0.24
308.15	0.2056	845.87	0.25
308.15	0.2582	858.8	0.25
308.15	0.3156	872.51	0.26
308.15	0.3612	883.11	0.26
308.15	0.4112	894.46	0.26
308.15	0.4585	904.92	0.27
308.15	0.5106	916.16	0.27
308.15	0.5574	926.01	0.28
308.15	0.6141	937.62	0.28
308.15	0.6603	946.85	0.28
308.15	0.7209	958.66	0.29
308.15	0.7646	966.96	0.29
308.15	0.8114	975.67	0.29
308.15	0.8624	984.93	0.3
308.15	0.9041	992.35	0.3
308.15	0.9525	1000.79	0.3
308.15	1	1008.9	0.3
313.15	0	787.83	0.23
313.15	0.0582	803.67	0.25
313.15	0.1177	819.38	0.25
313.15	0.1628	830.96	0.25
313.15	0.2056	841.7	0.26
313.15	0.2582	854.59	0.26
313.15	0.3156	868.26	0.27
313.15	0.3612	878.83	0.27
313.15	0.4112	890.16	0.27
313.15	0.4585	900.6	0.28
313.15	0.5106	911.82	0.28
313.15	0.5574	921.66	0.29
313.15	0.6141	933.26	0.29
313.15	0.6603	942.5	0.29
313.15	0.7209	954.31	0.3
313.15	0.7646	962.61	0.3
313.15	0.8114	971.33	0.3
313.15	0.8624	980.61	0.31
313.15	0.9041	988.04	0.31
313.15	0.9525	996.5	0.31
313.15	1	1004.63	0.31
318.15	0	783.86	0.24
318.15	0.0582	799.64	0.26
318.15	0.1177	815.29	0.26
318.15	0.1628	826.83	0.26
318.15	0.2056	837.53	0.27
318.15	0.2582	850.38	0.27
318.15	0.3156	864.01	0.28
318.15	0.3612	874.55	0.28
318.15	0.4112	885.86	0.28
318.15	0.4585	896.28	0.29
318.15	0.5106	907.48	0.29
318.15	0.5574	917.32	0.3
318.15	0.6141	928.91	0.3
318.15	0.6603	938.16	0.3
318.15	0.7209	949.97	0.31
318.15	0.7646	958.27	0.31
318.15	0.8114	966.99	0.31
318.15	0.8624	976.29	0.32
318.15	0.9041	983.73	0.32
318.15	0.9525	992.21	0.32
318.15	1	1000.36	0.32

System: aniline + propan-2-ol; phases: Liquid
Fixed: Pressure, kPa = 101
Property: Mass density, kg/m3 (Liquid); method: Pycnometric method
Temperature, K	Mole fraction of aniline	Mass density, kg/m3	uncertainty
293.15	0	784.96	0.19
293.15	0.0595	802.73	0.2
293.15	0.1201	820.26	0.21
293.15	0.1663	833.23	0.21
293.15	0.2094	845.04	0.22
293.15	0.2546	857.14	0.22
293.15	0.3017	869.43	0.22
293.15	0.3582	883.78	0.23
293.15	0.4167	898.21	0.23
293.15	0.4612	908.89	0.24
293.15	0.5163	921.79	0.24
293.15	0.5572	931.13	0.24
293.15	0.609	942.69	0.25
293.15	0.658	953.38	0.25
293.15	0.7047	963.32	0.26
293.15	0.7602	974.88	0.26
293.15	0.8149	986	0.26
293.15	0.8588	994.71	0.27
293.15	0.906	1003.91	0.27
293.15	0.9512	1012.55	0.27
293.15	1	1021.71	0.27
298.15	0	780.75	0.2
298.15	0.0595	798.44	0.21
298.15	0.1201	815.91	0.22
298.15	0.1663	828.84	0.22
298.15	0.2094	840.62	0.23
298.15	0.2546	852.69	0.23
298.15	0.3017	864.96	0.23
298.15	0.3582	879.29	0.24
298.15	0.4167	893.71	0.24
298.15	0.4612	904.38	0.25
298.15	0.5163	917.28	0.25
298.15	0.5572	926.62	0.25
298.15	0.609	938.19	0.26
298.15	0.658	948.9	0.26
298.15	0.7047	958.86	0.26
298.15	0.7602	970.44	0.27
298.15	0.8149	981.58	0.27
298.15	0.8588	990.32	0.28
298.15	0.906	999.55	0.28
298.15	0.9512	1008.23	0.28
298.15	1	1017.44	0.28
303.15	0	776.54	0.21
303.15	0.0595	794.16	0.22
303.15	0.1201	811.57	0.23
303.15	0.1663	824.45	0.23
303.15	0.2094	836.2	0.23
303.15	0.2546	848.24	0.24
303.15	0.3017	860.49	0.24
303.15	0.3582	874.8	0.25
303.15	0.4167	889.21	0.25
303.15	0.4612	899.87	0.26
303.15	0.5163	912.77	0.26
303.15	0.5572	922.11	0.26
303.15	0.609	933.69	0.27
303.15	0.658	944.42	0.27
303.15	0.7047	954.4	0.27
303.15	0.7602	966	0.28
303.15	0.8149	977.16	0.28
303.15	0.8588	985.93	0.29
303.15	0.906	995.19	0.29
303.15	0.9512	1003.91	0.29
303.15	1	1013.17	0.29
308.15	0	772.32	0.22
308.15	0.0595	789.88	0.23
308.15	0.1201	807.22	0.24
308.15	0.1663	820.06	0.24
308.15	0.2094	831.78	0.24
308.15	0.2546	843.79	0.25
308.15	0.3017	856.01	0.25
308.15	0.3582	870.31	0.26
308.15	0.4167	884.71	0.26
308.15	0.4612	895.35	0.27
308.15	0.5163	908.27	0.27
308.15	0.5572	917.61	0.27
308.15	0.609	929.2	0.28
308.15	0.658	939.93	0.28
308.15	0.7047	949.93	0.28
308.15	0.7602	961.56	0.29
308.15	0.8149	972.74	0.29
308.15	0.8588	981.54	0.3
308.15	0.906	990.83	0.3
308.15	0.9512	999.59	0.3
308.15	1	1008.9	0.3
313.15	0	768.11	0.23
313.15	0.0595	785.6	0.24
313.15	0.1201	802.88	0.25
313.15	0.1663	815.68	0.25
313.15	0.2094	827.35	0.25
313.15	0.2546	839.33	0.26
313.15	0.3017	851.54	0.26
313.15	0.3582	865.82	0.27
313.15	0.4167	880.22	0.27
313.15	0.4612	890.84	0.28
313.15	0.5163	903.76	0.28
313.15	0.5572	913.1	0.28
313.15	0.609	924.7	0.29
313.15	0.658	935.44	0.29
313.15	0.7047	945.46	0.29
313.15	0.7602	957.11	0.3
313.15	0.8149	968.32	0.3
313.15	0.8588	977.15	0.31
313.15	0.906	986.48	0.31
313.15	0.9512	995.28	0.31
313.15	1	1004.63	0.31
318.15	0	763.9	0.24
318.15	0.0595	781.32	0.25
318.15	0.1201	798.54	0.26
318.15	0.1663	811.3	0.26
318.15	0.2094	822.93	0.26
318.15	0.2546	834.88	0.27
318.15	0.3017	847.07	0.27
318.15	0.3582	861.33	0.28
318.15	0.4167	875.72	0.28
318.15	0.4612	886.33	0.29
318.15	0.5163	899.25	0.29
318.15	0.5572	908.59	0.29
318.15	0.609	920.2	0.3
318.15	0.658	930.95	0.3
318.15	0.7047	940.99	0.3
318.15	0.7602	952.66	0.31
318.15	0.8149	963.9	0.31
318.15	0.8588	972.76	0.32
318.15	0.906	982.12	0.32
318.15	0.9512	990.96	0.32
318.15	1	1000.36	0.32

System: aniline + 2-methyl-1-propanol; phases: Liquid
Fixed: Pressure, kPa = 101
Property: Mass density, kg/m3 (Liquid); method: Pycnometric method
Temperature, K	Mole fraction of aniline	Mass density, kg/m3	uncertainty
293.15	0	801.48	0.2
293.15	0.0556	814.64	0.21
293.15	0.1093	827.24	0.22
293.15	0.161	839.26	0.22
293.15	0.2145	851.59	0.23
293.15	0.2596	861.89	0.23
293.15	0.3099	873.31	0.23
293.15	0.358	884.13	0.24
293.15	0.4058	894.79	0.24
293.15	0.4573	906.19	0.24
293.15	0.5038	916.41	0.25
293.15	0.5523	927	0.25
293.15	0.6061	938.66	0.25
293.15	0.6526	948.65	0.25
293.15	0.7087	960.66	0.26
293.15	0.7512	969.68	0.26
293.15	0.809	981.89	0.26
293.15	0.8572	991.99	0.27
293.15	0.9051	1002	0.27
293.15	0.9562	1012.63	0.27
293.15	1	1021.71	0.27
298.15	0	797.54	0.21
298.15	0.0556	810.62	0.22
298.15	0.1093	823.15	0.23
298.15	0.161	835.11	0.23
298.15	0.2145	847.39	0.24
298.15	0.2596	857.65	0.24
298.15	0.3099	869.03	0.24
298.15	0.358	879.81	0.25
298.15	0.4058	890.44	0.25
298.15	0.4573	901.82	0.25
298.15	0.5038	912.02	0.26
298.15	0.5523	922.59	0.26
298.15	0.6061	934.24	0.26
298.15	0.6526	944.23	0.26
298.15	0.7087	956.24	0.27
298.15	0.7512	965.28	0.27
298.15	0.809	977.51	0.27
298.15	0.8572	987.64	0.28
298.15	0.9051	997.67	0.28
298.15	0.9562	1008.33	0.28
298.15	1	1017.44	0.28
303.15	0	793.6	0.22
303.15	0.0556	806.6	0.23
303.15	0.1093	819.06	0.24
303.15	0.161	830.96	0.24
303.15	0.2145	843.19	0.24
303.15	0.2596	853.41	0.25
303.15	0.3099	864.75	0.25
303.15	0.358	875.49	0.25
303.15	0.4058	886.09	0.26
303.15	0.4573	897.45	0.26
303.15	0.5038	907.63	0.26
303.15	0.5523	918.18	0.27
303.15	0.6061	929.82	0.27
303.15	0.6526	939.81	0.27
303.15	0.7087	951.83	0.28
303.15	0.7512	960.88	0.28
303.15	0.809	973.13	0.28
303.15	0.8572	983.29	0.29
303.15	0.9051	993.34	0.29
303.15	0.9562	1004.03	0.29
303.15	1	1013.17	0.29
308.15	0	789.66	0.23
308.15	0.0556	802.58	0.24
308.15	0.1093	814.97	0.25
308.15	0.161	826.81	0.25
308.15	0.2145	838.99	0.25
308.15	0.2596	849.17	0.26
308.15	0.3099	860.47	0.26
308.15	0.358	871.17	0.26
308.15	0.4058	881.74	0.27
308.15	0.4573	893.08	0.27
308.15	0.5038	903.24	0.27
308.15	0.5523	913.77	0.28
308.15	0.6061	925.42	0.28
308.15	0.6526	935.41	0.28
308.15	0.7087	947.43	0.29
308.15	0.7512	956.48	0.29
308.15	0.809	968.75	0.29
308.15	0.8572	978.93	0.3
308.15	0.9051	989.01	0.3
308.15	0.9562	999.73	0.3
308.15	1	1008.9	0.3
313.15	0	785.72	0.24
313.15	0.0556	798.56	0.25
313.15	0.1093	810.88	0.26
313.15	0.161	822.66	0.26
313.15	0.2145	834.79	0.26
313.15	0.2596	844.93	0.27
313.15	0.3099	856.19	0.27
313.15	0.358	866.85	0.27
313.15	0.4058	877.39	0.28
313.15	0.4573	888.71	0.28
313.15	0.5038	898.85	0.28
313.15	0.5523	909.37	0.29
313.15	0.6061	921.02	0.29
313.15	0.6526	931.01	0.29
313.15	0.7087	943.03	0.3
313.15	0.7512	952.08	0.3
313.15	0.809	964.37	0.3
313.15	0.8572	974.57	0.31
313.15	0.9051	984.68	0.31
313.15	0.9562	995.43	0.31
313.15	1	1004.63	0.31
318.15	0	781.78	0.25
318.15	0.0556	794.54	0.26
318.15	0.1093	806.8	0.27
318.15	0.161	818.52	0.27
318.15	0.2145	830.59	0.27
318.15	0.2596	840.69	0.28
318.15	0.3099	851.91	0.28
318.15	0.358	862.53	0.28
318.15	0.4058	873.05	0.29
318.15	0.4573	884.34	0.29
318.15	0.5038	894.46	0.29
318.15	0.5523	904.98	0.3
318.15	0.6061	916.62	0.3
318.15	0.6526	926.61	0.3
318.15	0.7087	938.63	0.31
318.15	0.7512	947.68	0.31
318.15	0.809	959.99	0.31
318.15	0.8572	970.21	0.32
318.15	0.9051	980.35	0.32
318.15	0.9562	991.13	0.32
318.15	1	1000.36	0.32

System: aniline + 2-methylpropan-2-ol; phases: Liquid
Fixed: Pressure, kPa = 101
Property: Mass density, kg/m3 (Liquid); method: Pycnometric method
Temperature, K	Mole fraction of aniline	Mass density, kg/m3	uncertainty
293.15	0	785.75	0.23
293.15	0.0538	799.32	0.24
293.15	0.1082	812.94	0.24
293.15	0.1526	823.96	0.24
293.15	0.2066	837.3	0.25
293.15	0.2552	849.15	0.25
293.15	0.3075	861.87	0.25
293.15	0.3523	872.64	0.25
293.15	0.4074	885.77	0.25
293.15	0.4586	897.89	0.26
293.15	0.5064	909.11	0.26
293.15	0.5532	920.06	0.26
293.15	0.6076	932.71	0.26
293.15	0.6522	942.96	0.26
293.15	0.7028	954.55	0.27
293.15	0.7542	966.31	0.27
293.15	0.8062	978.12	0.27
293.15	0.8544	989.01	0.27
293.15	0.9012	999.55	0.27
293.15	0.9536	1011.32	0.28
293.15	1	1021.71	0.27
298.15	0	780.63	0.24
298.15	0.0538	794.16	0.25
298.15	0.1082	807.75	0.25
298.15	0.1526	818.75	0.25
298.15	0.2066	832.07	0.25
298.15	0.2552	843.91	0.26
298.15	0.3075	856.61	0.26
298.15	0.3523	867.39	0.26
298.15	0.4074	880.55	0.26
298.15	0.4586	892.7	0.27
298.15	0.5064	903.96	0.27
298.15	0.5532	914.96	0.27
298.15	0.6076	927.68	0.27
298.15	0.6522	937.98	0.27
298.15	0.7028	949.67	0.28
298.15	0.7542	961.5	0.28
298.15	0.8062	973.41	0.28
298.15	0.8544	984.4	0.28
298.15	0.9012	995.04	0.28
298.15	0.9536	1006.93	0.29
298.15	1	1017.44	0.28
303.15	0	775.51	0.25
303.15	0.0538	789	0.25
303.15	0.1082	802.56	0.26
303.15	0.1526	813.54	0.26
303.15	0.2066	826.84	0.26
303.15	0.2552	838.68	0.27
303.15	0.3075	851.36	0.27
303.15	0.3523	862.16	0.27
303.15	0.4074	875.35	0.27
303.15	0.4586	887.53	0.28
303.15	0.5064	898.82	0.28
303.15	0.5532	909.87	0.28
303.15	0.6076	922.65	0.28
303.15	0.6522	933.01	0.28
303.15	0.7028	944.79	0.29
303.15	0.7542	956.69	0.29
303.15	0.8062	968.7	0.29
303.15	0.8544	979.79	0.29
303.15	0.9012	990.52	0.29
303.15	0.9536	1002.54	0.3
303.15	1	1013.17	0.29
308.15	0	770.39	0.26
308.15	0.0538	783.84	0.26
308.15	0.1082	797.37	0.27
308.15	0.1526	808.33	0.27
308.15	0.2066	821.61	0.27
308.15	0.2552	833.45	0.27
308.15	0.3075	846.12	0.28
308.15	0.3523	856.93	0.28
308.15	0.4074	870.14	0.28
308.15	0.4586	882.37	0.28
308.15	0.5064	893.69	0.29
308.15	0.5532	904.78	0.29
308.15	0.6076	917.63	0.29
308.15	0.6522	928.05	0.29
308.15	0.7028	939.91	0.3
308.15	0.7542	951.88	0.3
308.15	0.8062	963.99	0.3
308.15	0.8544	975.17	0.3
308.15	0.9012	986	0.3
308.15	0.9536	998.14	0.3
308.15	1	1008.9	0.3
313.15	0	765.26	0.26
313.15	0.0538	778.68	0.27
313.15	0.1082	792.18	0.28
313.15	0.1526	803.12	0.28
313.15	0.2066	816.38	0.28
313.15	0.2552	828.22	0.28
313.15	0.3075	840.89	0.29
313.15	0.3523	851.71	0.29
313.15	0.4074	864.94	0.29
313.15	0.4586	877.21	0.29
313.15	0.5064	888.57	0.3
313.15	0.5532	899.69	0.3
313.15	0.6076	912.61	0.3
313.15	0.6522	923.09	0.3
313.15	0.7028	935.02	0.3
313.15	0.7542	947.08	0.31
313.15	0.8062	959.28	0.31
313.15	0.8544	970.55	0.31
313.15	0.9012	981.48	0.31
313.15	0.9536	993.75	0.31
313.15	1	1004.63	0.31
318.15	0	760.13	0.27
318.15	0.0538	773.52	0.28
318.15	0.1082	786.99	0.28
318.15	0.1526	797.91	0.29
318.15	0.2066	811.16	0.29
318.15	0.2552	822.99	0.29
318.15	0.3075	835.67	0.3
318.15	0.3523	846.49	0.3
318.15	0.4074	859.75	0.3
318.15	0.4586	872.06	0.3
318.15	0.5064	883.45	0.31
318.15	0.5532	894.61	0.31
318.15	0.6076	907.6	0.31
318.15	0.6522	918.13	0.31
318.15	0.7028	930.13	0.31
318.15	0.7542	942.28	0.32
318.15	0.8062	954.57	0.32
318.15	0.8544	965.93	0.32
318.15	0.9012	976.97	0.32
318.15	0.9536	989.36	0.32
318.15	1	1000.36	0.32
