Measured thermophysical data. An Experimental Study of the pV T x Properties for Binary Mixtures of HFC-32 and HFC-125 from 258 to 354 K at Pressures up to 16.9 MPa1
Source: Int. J. Thermophys., 2005, 10.1007/s10765-005-8591-6
Compound 1: difluoromethane, CH2F2, InChI=1S/CH2F2/c2-1-3/h1H2
Compound 2: pentafluoroethane, C2HF5, InChI=1S/C2HF5/c3-1(4)2(5,6)7/h1H

System: difluoromethane; phases: Fluid (supercritical or subcritical phases)
Property: Mass density, kg/m3 (Fluid (supercritical or subcritical phases)); method: Constant-volume piezometry
Temperature, K	Pressure, kPa	Mass density, kg/m3	uncertainty
313.158	3353.7	900.17	0.41
316.153	4967.1	899.97	0.41
319.149	6571.4	899.77	0.41
322.151	8162.4	899.57	0.42
328.156	11399.7	899.19	0.43
334.149	14753.4	898.82	0.44
337.153	16580.5	898.63	0.44

System: pentafluoroethane; phases: Fluid (supercritical or subcritical phases)
Property: Mass density, kg/m3 (Fluid (supercritical or subcritical phases)); method: Constant-volume piezometry
Temperature, K	Pressure, kPa	Mass density, kg/m3	uncertainty
258.157	4595.6	1403.78	0.63
261.154	6579.8	1403.47	0.63
262.143	7284.6	1403.36	0.63
267.159	10809.2	1402.84	0.64
270.192	13002.8	1402.53	0.64
273.152	15075.9	1402.23	0.65
275.154	16572	1402.04	0.65

System: difluoromethane + pentafluoroethane; phases: Fluid (supercritical or subcritical phases)
Property: Mass density, kg/m3 (Fluid (supercritical or subcritical phases)); method: Constant-volume piezometry
Mole fraction of difluoromethane	Temperature, K	Pressure, kPa	Mass density, kg/m3	uncertainty
0	258.157	4595.6	1403.78	0.63
0	261.154	6579.8	1403.47	0.63
0	262.143	7284.6	1403.36	0.63
0	267.159	10809.2	1402.84	0.64
0	270.192	13002.8	1402.53	0.64
0	273.152	15075.9	1402.23	0.65
0	275.154	16572	1402.04	0.65
0.098	264.148	3235.2	1362.36	0.85
0.098	267.16	5301.3	1362.04	0.85
0.098	270.153	7414.4	1361.73	0.86
0.098	273.151	9532.7	1361.42	0.86
0.098	282.151	15977.5	1360.53	0.87
0.1	313.146	2820.6	1097.54	0.69
0.1	318.151	4528.5	1097.17	0.69
0.1	323.159	6252.9	1096.79	0.7
0.1	328.146	7986	1096.43	0.7
0.1	333.168	9741.9	1096.06	0.71
0.1	338.144	11489.1	1095.7	0.71
0.1	343.127	13247.2	1095.35	0.72
0.1	348.161	15022.1	1094.99	0.72
0.1	353.138	16781.8	1094.64	0.73
0.3003	313.134	2217.5	1050.39	0.66
0.3003	318.183	3901.3	1050.03	0.66
0.3003	323.16	5645.9	1049.68	0.67
0.3003	328.15	7408.9	1049.33	0.67
0.3003	333.142	9188.4	1048.98	0.68
0.3003	338.134	10978.6	1048.63	0.68
0.3003	343.127	12772.5	1048.29	0.69
0.3003	348.168	14592.3	1047.95	0.69
0.3003	353.136	16386	1047.61	0.7
0.3003	354.135	16744	1047.54	0.7
0.3004	258.149	2177	1342.88	0.84
0.3004	259.15	2913.1	1342.77	0.84
0.3004	261.15	4474.9	1342.56	0.84
0.3004	263.153	6106.3	1342.34	0.84
0.3004	265.146	7767	1342.13	0.85
0.3004	267.158	9382.9	1341.92	0.85
0.3004	269.15	10983.3	1341.71	0.85
0.3004	273.148	14255.1	1341.32	0.85
0.4993	318.207	3341.8	1000.3	0.63
0.4993	323.15	5129.3	999.96	0.63
0.4993	328.163	6969.7	999.62	0.64
0.4993	333.154	8814.5	999.29	0.64
0.4993	338.191	10689.9	998.95	0.65
0.4993	343.183	12549.9	998.62	0.65
0.4993	348.164	14422.7	998.3	0.66
0.4993	353.128	16290.2	997.98	0.66
0.4993	354.148	16672.1	997.91	0.67
0.4995	258.157	1554.4	1294.18	0.81
0.4995	259.15	2403.7	1294.07	0.81
0.4995	261.15	4118.3	1293.85	0.81
0.4995	263.147	5848.5	1293.64	0.81
0.4995	265.167	7585.9	1293.43	0.81
0.4995	267.146	9274.4	1293.23	0.82
0.4995	268.197	10151.5	1293.13	0.82
0.4995	269.138	10950.5	1293.04	0.82
0.4995	271.135	12647.4	1292.84	0.82
0.4995	273.08	14311.4	1292.65	0.82
0.4995	275.133	16065.5	1292.46	0.83
0.6995	259.14	2658.3	1234.39	0.77
0.6995	261.15	4516.2	1234.17	0.77
0.6995	263.15	6362.9	1233.97	0.78
0.6995	264.151	7288.1	1233.88	0.78
0.6995	265.154	8213.6	1233.78	0.78
0.6995	267.147	10051.2	1233.58	0.78
0.6995	269.151	11894.4	1233.38	0.78
0.6995	271.156	13740.2	1233.2	0.79
0.6995	273.159	15579.3	1233.01	0.79
0.6995	274.162	16499.4	1232.92	0.79
0.6998	318.15	2921.8	949.66	0.6
0.6998	323.144	4867	949.34	0.6
0.6998	328.137	6839.9	949.01	0.61
0.6998	333.127	8834	948.69	0.61
0.6998	338.126	10843.1	948.37	0.61
0.6998	343.121	12860.3	948.05	0.62
0.6998	348.123	14887	947.74	0.63
0.6998	353.108	16916.8	947.43	0.63
0.8992	318.145	2959	900.95	0.57
0.8992	323.129	5212.3	900.63	0.57
0.8992	328.16	7509.2	900.31	0.58
0.8992	333.13	9793.4	900.01	0.58
0.8992	338.123	12100.3	899.7	0.59
0.8992	343.12	14419.1	899.4	0.59
0.8992	348.126	16745.7	899.1	0.6
0.8997	261.147	3061.1	1151.87	0.72
0.8997	262.144	4056	1151.77	0.72
0.8997	263.15	5058.3	1151.67	0.72
0.8997	264.15	6053.5	1151.57	0.72
0.8997	265.153	7050.9	1151.47	0.72
0.8997	267.153	9040.9	1151.28	0.73
0.8997	268.151	10031.9	1151.19	0.73
0.8997	269.158	11031.1	1151.09	0.73
0.8997	271.151	13007.5	1150.92	0.73
0.8997	273.155	14990.5	1150.74	0.73
0.8997	274.145	15969.3	1150.66	0.74
1	313.158	3353.7	900.17	0.41
1	316.153	4967.1	899.97	0.41
1	319.149	6571.4	899.77	0.41
1	322.151	8162.4	899.57	0.42
1	328.156	11399.7	899.19	0.43
1	334.149	14753.4	898.82	0.44
1	337.153	16580.5	898.63	0.44
