Measured thermophysical data. Density of Methylcyclohexane at Temperatures up to 600 K and Pressures up to 200 MPa
Source: Int. J. Thermophys., 2017, 10.1007/s10765-017-2241-7
Compound 1: methylcyclohexane, C7H14, InChI=1S/C7H14/c1-7-5-3-2-4-6-7/h7H,2-6H2,1H3

System: methylcyclohexane; phases: Liquid
Property: Mass density, kg/m3 (Liquid); method: Bellows volumetry
Temperature, K	Pressure, kPa	Mass density, kg/m3	uncertainty
410	200000	812.647	1.788
410	180000	804.482	1.77
410	160000	795.899	1.751
410	140000	786.383	1.731
410	120000	776.018	1.708
410	100000	764.111	1.682
410	90000	757.777	1.668
410	80000	750.846	1.653
410	70000	743.853	1.638
410	60000	736.124	1.621
410	50000	727.698	1.603
410	40000	717.821	1.581
410	30000	707.272	1.559
410	20000	695.044	1.533
450	200000	798.897	1.758
450	180000	790.183	1.739
450	160000	780.708	1.718
450	140000	770.433	1.696
450	120000	759.037	1.671
450	100000	746.296	1.643
450	90000	739.304	1.628
450	80000	731.598	1.611
450	70000	723.281	1.593
450	60000	714.464	1.574
450	50000	704.34	1.552
450	40000	693.215	1.528
450	30000	680.595	1.502
450	20000	664.914	1.469
500	200000	779.786	1.716
500	180000	770.353	1.695
500	160000	759.878	1.672
500	140000	748.645	1.648
500	120000	735.845	1.62
500	100000	721.454	1.588
500	90000	713.602	1.571
500	80000	704.872	1.552
500	70000	695.54	1.532
500	60000	684.828	1.509
500	50000	672.946	1.484
500	40000	659.481	1.456
500	30000	643.213	1.423
500	20000	623.145	1.384
550	200000	760.464	1.674
550	180000	750.159	1.651
550	160000	739.33	1.627
550	140000	726.911	1.6
550	120000	713.086	1.57
550	100000	697.29	1.535
550	90000	688.637	1.517
550	80000	678.738	1.495
550	70000	668.08	1.473
550	60000	656.179	1.447
550	50000	642.447	1.418
550	40000	626.206	1.385
550	30000	605.816	1.346
550	20000	579.029	1.303
600	200000	741.384	1.632
600	180000	730.911	1.609
600	160000	718.93	1.582
600	140000	705.698	1.554
600	120000	690.895	1.521
600	100000	673.632	1.484
600	90000	664.012	1.463
600	80000	653.239	1.44
600	70000	641.114	1.414
600	60000	627.511	1.386
600	50000	611.576	1.353
600	40000	592.364	1.315
600	30000	567.711	1.272
600	20000	532.582	1.227
600	12000	485.331	1.168
410	10000	680.503	1.502
450	10000	645.737	1.431
500	10000	595.224	1.332
550	10000	537.032	1.23
