Measured thermophysical data. Volumetric Properties of Binary Mixtures of 2,4,6-Trimethylpyridine with 1,2-Ethanediol, Methanol, and Water, and the Association Energies of the O-H***N Bonded Complexes
Source: Int. J. Thermophys., 2012, 10.1007/s10765-011-1149-x
Compound 1: 2,4,6-trimethylpyridine, C8H11N, InChI=1S/C8H11N/c1-6-4-7(2)9-8(3)5-6/h4-5H,1-3H3, purity 99%
Compound 2: methanol, CH4O, InChI=1S/CH4O/c1-2/h2H,1H3, purity 99.9%
Compound 3: 1,2-ethanediol, C2H6O2, InChI=1S/C2H6O2/c3-1-2-4/h3-4H,1-2H2, purity 99.5%

System: 2,4,6-trimethylpyridine; phases: Liquid
Fixed: Pressure, kPa = 101
Property: Mass density, kg/m3 (Liquid); method: Vibrating tube method
Temperature, K	Mass density, kg/m3	uncertainty
276.15	928.45	0.23
277.15	927.61	0.23
283.15	922.54	0.23
288.15	918.32	0.24
293.14	914.08	0.24
298.15	909.84	0.24
303.15	905.58	0.24
308.15	901.31	0.24
313.15	897.03	0.24

System: methanol; phases: Liquid
Fixed: Pressure, kPa = 101
Property: Mass density, kg/m3 (Liquid); method: Vibrating tube method
Temperature, K	Mass density, kg/m3	uncertainty
276.15	807.18	0.15
277.15	806.25	0.15
283.15	800.64	0.15
288.15	795.96	0.15
293.15	791.26	0.15
298.15	786.55	0.15
303.15	781.83	0.15
308.15	777.08	0.15
313.14	772.31	0.16

System: 1,2-ethanediol; phases: Liquid
Fixed: Pressure, kPa = 101
Property: Mass density, kg/m3 (Liquid); method: Vibrating tube method
Temperature, K	Mass density, kg/m3	uncertainty
276.15	1125.17	0.17
277.15	1124.48	0.17
283.15	1120.32	0.16
288.15	1116.86	0.16
293.15	1113.37	0.16
298.14	1109.87	0.16
303.15	1106.36	0.16
308.15	1102.84	0.16
313.15	1099.3	0.16

System: methanol + 2,4,6-trimethylpyridine; phases: Liquid
Fixed: Pressure, kPa = 101
Property: Mass density, kg/m3 (Liquid); method: Vibrating tube method
Temperature, K	Mole fraction of 2,4,6-trimethylpyridine	Mass density, kg/m3	uncertainty
276.15	0	807.18	0.15
276.15	0.0204	816.99	0.14
276.15	0.0511	830.47	0.14
276.15	0.0997	848.99	0.14
276.15	0.194	875.69	0.16
276.15	0.2957	895.63	0.15
276.15	0.3884	907.79	0.14
276.15	0.489	916.36	0.15
276.15	0.5852	921.51	0.15
276.15	0.6949	925.01	0.17
276.15	0.7971	926.99	0.19
276.15	0.8889	928.16	0.21
276.15	1	928.45	0.23
277.15	0	806.25	0.15
277.15	0.0204	816.06	0.15
277.15	0.0511	829.54	0.15
277.15	0.0997	848.07	0.18
277.15	0.194	874.77	0.21
277.15	0.2957	894.71	0.19
277.15	0.3884	906.88	0.17
277.15	0.489	915.47	0.17
277.15	0.5852	920.64	0.17
277.15	0.6949	924.15	0.18
277.15	0.7971	926.14	0.19
277.15	0.8889	927.31	0.21
277.15	1	927.61	0.23
283.14	0.2957	889.2	0.15
283.14	0.3884	901.42	0.15
283.14	0.5852	915.35	0.16
283.14	0.7971	921.01	0.19
283.15	0	800.64	0.15
283.15	0.0204	810.47	0.15
283.15	0.0511	823.96	0.14
283.15	0.0997	842.5	0.14
283.15	0.194	869.23	0.14
283.15	0.489	910.1	0.15
283.15	0.6949	918.95	0.17
283.15	0.8889	922.22	0.21
283.15	1	922.54	0.23
288.15	0	795.96	0.15
288.15	0.0204	805.79	0.15
288.15	0.0511	819.3	0.15
288.15	0.0997	837.86	0.14
288.15	0.194	864.59	0.15
288.15	0.2957	884.59	0.15
288.15	0.3884	896.86	0.15
288.15	0.489	905.6	0.15
288.15	0.5852	910.93	0.16
288.15	0.6949	914.61	0.17
288.15	0.7971	916.72	0.19
288.15	0.8889	917.96	0.21
288.15	1	918.32	0.24
293.14	0.0997	833.2	0.15
293.14	1	914.08	0.24
293.15	0	791.26	0.15
293.15	0.0204	801.11	0.15
293.15	0.0511	814.63	0.15
293.15	0.194	859.94	0.15
293.15	0.2957	879.97	0.15
293.15	0.3884	892.28	0.15
293.15	0.489	901.1	0.16
293.15	0.5852	906.5	0.16
293.15	0.6949	910.25	0.18
293.15	0.7971	912.41	0.19
293.15	0.8889	913.69	0.21
298.14	0.0511	809.94	0.15
298.14	0.6949	905.88	0.18
298.14	0.8889	909.41	0.21
298.15	0	786.55	0.15
298.15	0.0204	796.41	0.15
298.15	0.0997	828.52	0.15
298.15	0.194	855.28	0.15
298.15	0.2957	875.33	0.15
298.15	0.3884	887.69	0.15
298.15	0.489	896.57	0.16
298.15	0.5852	902.05	0.16
298.15	0.7971	908.1	0.19
298.15	1	909.84	0.24
303.14	0.7971	903.77	0.19
303.14	0.8889	905.12	0.21
303.15	0	781.83	0.15
303.15	0.0204	791.7	0.15
303.15	0.0511	805.24	0.15
303.15	0.0997	823.83	0.15
303.15	0.194	850.6	0.15
303.15	0.2957	870.67	0.15
303.15	0.3884	883.08	0.15
303.15	0.489	892.04	0.16
303.15	0.5852	897.58	0.16
303.15	0.6949	901.49	0.18
303.15	1	905.58	0.24
308.14	0.0997	819.11	0.15
308.14	0.194	845.89	0.15
308.14	0.3884	878.45	0.15
308.14	0.489	887.48	0.16
308.14	0.5852	893.1	0.16
308.14	0.6949	897.08	0.18
308.14	0.7971	899.42	0.19
308.15	0	777.08	0.15
308.15	0.0204	786.96	0.15
308.15	0.0511	800.51	0.15
308.15	0.2957	865.99	0.15
308.15	0.8889	900.82	0.21
308.15	1	901.31	0.24
313.14	0	772.31	0.16
313.14	0.0204	782.2	0.15
313.14	0.0511	795.75	0.15
313.14	0.0997	814.36	0.16
313.14	0.489	882.9	0.16
313.14	0.6949	892.65	0.18
313.15	0.194	841.15	0.16
313.15	0.2957	861.28	0.16
313.15	0.3884	873.79	0.16
313.15	0.5852	888.59	0.17
313.15	0.7971	895.05	0.2
313.15	0.8889	896.49	0.21
313.15	1	897.03	0.24

System: 1,2-ethanediol + 2,4,6-trimethylpyridine; phases: Liquid
Fixed: Pressure, kPa = 101
Property: Mass density, kg/m3 (Liquid); method: Vibrating tube method
Temperature, K	Mole fraction of 2,4,6-trimethylpyridine	Mass density, kg/m3	uncertainty
276.15	0	1125.17	0.17
276.15	0.0227	1116.64	0.17
276.15	0.0509	1106.81	0.17
276.15	0.1024	1090.72	0.18
276.15	0.1996	1065.35	0.19
276.15	0.2983	1043.61	0.19
276.15	0.4014	1024.29	0.19
276.15	0.4958	1008.47	0.19
276.15	0.5984	991.05	0.2
276.15	0.6974	975.68	0.2
276.15	0.7927	959.81	0.21
276.15	0.8896	944.84	0.22
277.15	0	1124.48	0.17
277.15	0.0227	1115.94	0.16
277.15	0.0509	1106.1	0.16
277.15	0.1996	1064.61	0.17
277.15	0.2983	1042.81	0.17
277.15	0.4014	1023.47	0.18
277.15	0.4958	1007.63	0.19
277.15	0.5984	990.18	0.19
277.15	0.6974	974.81	0.2
277.15	0.7927	958.95	0.21
277.15	0.8896	944	0.22
277.16	0.1024	1090	0.16
283.15	0	1120.32	0.16
283.15	0.0227	1111.72	0.16
283.15	0.0509	1101.82	0.16
283.15	0.1996	1060.1	0.17
283.15	0.2983	1038.02	0.17
283.15	0.4014	1018.5	0.18
283.15	0.5984	985	0.19
283.15	0.7927	953.81	0.21
283.15	0.8896	938.89	0.22
283.16	0.1024	1085.61	0.16
283.16	0.4958	1002.53	0.19
283.16	0.6974	969.63	0.2
288.15	0	1116.86	0.16
288.15	0.0227	1108.21	0.16
288.15	0.0509	1098.26	0.16
288.15	0.1024	1081.94	0.16
288.15	0.1996	1056.23	0.17
288.15	0.2983	1034.02	0.17
288.15	0.4014	1014.34	0.18
288.15	0.4958	998.27	0.19
288.15	0.5984	980.68	0.19
288.15	0.6974	965.31	0.2
288.15	0.7927	949.52	0.21
288.15	0.8896	934.64	0.22
293.14	0.1024	1078.26	0.16
293.15	0	1113.37	0.16
293.15	0.0227	1104.68	0.16
293.15	0.0509	1094.67	0.16
293.15	0.1996	1052.33	0.17
293.15	0.2983	1029.98	0.17
293.15	0.4014	1010.15	0.18
293.15	0.4958	993.97	0.19
293.15	0.5984	976.33	0.19
293.15	0.6974	960.96	0.2
293.15	0.7927	945.2	0.21
293.15	0.8896	930.36	0.22
298.14	0	1109.87	0.16
298.14	0.0227	1101.13	0.16
298.14	0.0509	1091.07	0.16
298.14	0.1024	1074.55	0.16
298.14	0.2983	1025.93	0.17
298.14	0.4958	989.66	0.19
298.14	0.8896	926.07	0.22
298.15	0.1996	1048.43	0.16
298.15	0.4014	1005.94	0.18
298.15	0.5984	971.96	0.19
298.15	0.6974	956.59	0.2
298.15	0.7927	940.86	0.21
303.15	0	1106.36	0.16
303.15	0.0227	1097.58	0.16
303.15	0.0509	1087.45	0.16
303.15	0.1024	1070.84	0.16
303.15	0.1996	1044.52	0.16
303.15	0.2983	1021.84	0.17
303.15	0.4014	1001.71	0.18
303.15	0.4958	985.33	0.19
303.15	0.5984	967.57	0.19
303.15	0.6974	952.2	0.2
303.15	0.7927	936.51	0.21
303.15	0.8896	921.76	0.22
308.14	0.4014	997.46	0.18
308.14	0.5984	963.16	0.19
308.15	0	1102.84	0.16
308.15	0.0227	1094.01	0.16
308.15	0.0509	1083.83	0.16
308.15	0.1024	1067.1	0.16
308.15	0.1996	1040.64	0.16
308.15	0.2983	1017.74	0.17
308.15	0.4958	980.98	0.19
308.15	0.6974	947.78	0.2
308.15	0.7927	932.13	0.21
308.15	0.8896	917.43	0.22
313.14	0.1024	1063.34	0.16
313.14	0.1996	1036.74	0.16
313.14	0.2983	1013.62	0.16
313.14	0.4014	993.19	0.17
313.14	0.4958	976.61	0.19
313.14	0.5984	958.73	0.19
313.15	0	1099.3	0.16
313.15	0.0227	1090.43	0.16
313.15	0.0509	1080.18	0.16
313.15	0.6974	943.35	0.2
313.15	0.7927	927.74	0.21
313.15	0.8896	913.09	0.22
