Measured thermophysical data. Speed of Sound in Pure Water at Temperatures between 274 and 394K and at Pressures up to 90 MPa1
Source: Int. J. Thermophys., 2005, 10.1007/s10765-005-8587-2
Compound 1: water, H2O, InChI=1S/H2O/h1H2

System: water; phases: Fluid (supercritical or subcritical phases)
Property: Speed of sound, m/s (Fluid (supercritical or subcritical phases)); method: Pulse-echo method
Pressure, kPa	Temperature, K	Speed of sound, m/s	uncertainty
90	273.98	1406.04	1.55
90	289.01	1468.43	1.63
90	319	1537.16	1.7
90	334	1551.17	1.71
90	349	1554.92	1.71
90	364	1549.99	1.71
100	303.99	1510.61	1.67
170	289.01	1468.57	1.63
180	303.99	1510.76	1.67
9990	364	1570.35	1.73
10000	273.98	1421.25	1.57
10000	334	1569.43	1.73
10020	303.99	1527.37	1.68
10040	289.01	1484.56	1.64
10050	379	1559.21	1.72
10070	319	1554.73	1.71
10160	394	1542.62	1.7
10170	349	1574.45	1.73
19900	334	1587.38	1.74
20000	273.98	1437.35	1.59
20000	349	1593.14	1.75
20020	289.01	1500.96	1.65
20020	364	1590.45	1.75
20050	303.99	1544.26	1.7
20060	379	1580.44	1.74
20100	319	1572.22	1.73
20150	394	1565.19	1.72
29950	319	1589.2	1.75
30000	349	1611.76	1.77
30010	273.98	1454.05	1.61
30010	364	1609.99	1.77
30010	379	1600.94	1.76
30010	394	1586.75	1.75
30040	289.01	1517.68	1.67
30050	303.99	1561.11	1.72
30130	334	1605.65	1.76
39890	349	1629.85	1.79
39960	394	1607.85	1.77
39980	303.99	1577.8	1.73
40020	289.01	1534.46	1.69
40030	273.98	1471.26	1.62
40040	364	1629.15	1.79
40060	379	1621.12	1.78
40070	334	1623.16	1.78
40090	319	1606.52	1.76
49770	364	1647.37	1.81
49980	394	1628.5	1.79
50000	379	1640.57	1.8
50040	273.98	1488.84	1.64
50050	289.01	1551.44	1.71
50060	303.99	1594.71	1.75
50070	319	1623.46	1.78
50110	334	1640.66	1.8
50120	349	1648.22	1.81
59970	289.01	1568.35	1.73
59970	379	1659.6	1.82
59970	394	1648.41	1.81
59990	319	1640.14	1.8
60000	349	1665.68	1.83
60020	334	1657.59	1.82
60050	273.98	1506.71	1.66
60060	303.99	1611.42	1.77
60150	364	1666.36	1.83
69890	394	1667.71	1.83
70000	303.99	1627.98	1.79
70010	319	1656.84	1.82
70040	289.01	1585.53	1.74
70060	364	1684.09	1.85
70070	349	1683.08	1.85
70090	273.98	1524.95	1.68
70100	334	1674.6	1.84
70120	379	1678.5	1.84
79880	379	1696.31	1.86
79960	273.98	1543	1.7
79990	334	1691.11	1.85
79990	349	1700.01	1.86
79990	364	1701.58	1.86
80030	289.01	1602.59	1.76
80100	319	1673.45	1.83
80100	394	1687.1	1.85
80110	303.99	1644.77	1.8
89940	273.98	1561.31	1.72
90000	289.01	1619.64	1.78
90000	319	1689.64	1.85
90000	334	1707.59	1.87
90010	303.99	1661.14	1.82
90020	349	1716.83	1.88
90020	394	1705.48	1.87
90060	379	1714.66	1.88
90090	364	1719	1.88
