Measured thermophysical data. Thermophysical Properties of Binary Mixtures of Methanol with Chlorobenzene and Bromobenzene from 293K to 313K
Source: Int. J. Thermophys., 2008, 10.1007/s10765-008-0444-7
Compound 1: methanol, CH4O, InChI=1S/CH4O/c1-2/h2H,1H3
Compound 2: chlorobenzene, C6H5Cl, InChI=1S/C6H5Cl/c7-6-4-2-1-3-5-6/h1-5H
Compound 3: bromobenzene, C6H5Br, InChI=1S/C6H5Br/c7-6-4-2-1-3-5-6/h1-5H

System: methanol; phases: Liquid
Fixed: Pressure, kPa = 101.3
Property: Viscosity, Pa*s (Liquid); method: Capillary tube (Ostwald; Ubbelohde) method
Temperature, K	Viscosity, Pa*s	uncertainty
293	0.000591	1.63e-05
303	0.000518	1.43e-05
313	0.00045	1.25e-05

System: methanol; phases: Liquid
Fixed: Pressure, kPa = 101.3
Property: Mass density, kg/m3 (Liquid); method: Pycnometric method
Temperature, K	Mass density, kg/m3	uncertainty
293	791.1	3.5
303	781.9	3.5
313	772.4	3.4

System: chlorobenzene; phases: Liquid
Fixed: Pressure, kPa = 101.3
Property: Viscosity, Pa*s (Liquid); method: Capillary tube (Ostwald; Ubbelohde) method
Temperature, K	Viscosity, Pa*s	uncertainty
293	0.0008432	2.32e-05
303	0.000721	1.99e-05
313	0.0006247	1.72e-05

System: chlorobenzene; phases: Liquid
Fixed: Pressure, kPa = 101.3
Property: Mass density, kg/m3 (Liquid); method: Pycnometric method
Temperature, K	Mass density, kg/m3	uncertainty
293	1105.8	6.8
303	1095	6.7
313	1082	6.6

System: bromobenzene; phases: Liquid
Fixed: Pressure, kPa = 101.3
Property: Viscosity, Pa*s (Liquid); method: Capillary tube (Ostwald; Ubbelohde) method
Temperature, K	Viscosity, Pa*s	uncertainty
293	0.001164	3.2e-05
303	0.0009844	2.71e-05
313	0.0008786	2.42e-05

System: bromobenzene; phases: Liquid
Fixed: Pressure, kPa = 101.3
Property: Mass density, kg/m3 (Liquid); method: Pycnometric method
Temperature, K	Mass density, kg/m3	uncertainty
293	1497	12.4
303	1483	12.2
313	1467	12

System: methanol + chlorobenzene; phases: Liquid
Fixed: Pressure, kPa = 101
Property: Viscosity, Pa*s (Liquid); method: Capillary tube (Ostwald; Ubbelohde) method
Temperature, K	Mole fraction of methanol	Viscosity, Pa*s	uncertainty
293	0	0.0008432	2.32e-05
293	0.2808	0.0008312	2.29e-05
293	0.4676	0.0008209	2.26e-05
293	0.601	0.0008018	2.21e-05
293	0.7009	0.0007699	2.12e-05
293	0.7783	0.0007256	2e-05
293	0.8405	0.000692	1.91e-05
293	0.8913	0.0006766	1.87e-05
293	0.9335	0.0006424	1.77e-05
293	0.9693	0.0006194	1.71e-05
293	1	0.000591	1.63e-05
303	0	0.000721	1.99e-05
303	0.2808	0.0007121	1.96e-05
303	0.4676	0.0006924	1.91e-05
303	0.601	0.0006821	1.88e-05
303	0.7009	0.0006572	1.81e-05
303	0.7783	0.0006093	1.68e-05
303	0.8405	0.0005828	1.61e-05
303	0.8913	0.0005672	1.57e-05
303	0.9335	0.0005401	1.49e-05
303	0.9693	0.000528	1.46e-05
303	1	0.000518	1.43e-05
313	0	0.0006247	1.72e-05
313	0.2808	0.0006157	1.7e-05
313	0.4676	0.0006041	1.67e-05
313	0.601	0.0005832	1.61e-05
313	0.7009	0.0005569	1.54e-05
313	0.7783	0.0005296	1.46e-05
313	0.8405	0.00051	1.41e-05
313	0.8913	0.0004961	1.37e-05
313	0.9335	0.0004701	1.3e-05
313	0.9693	0.0004591	1.27e-05
313	1	0.00045	1.25e-05

System: methanol + chlorobenzene; phases: Liquid
Fixed: Pressure, kPa = 101
Property: Mass density, kg/m3 (Liquid); method: Pycnometric method
Temperature, K	Mole fraction of methanol	Mass density, kg/m3	uncertainty
293	0	1105.8	6.8
293	0.2808	1066.5	6.4
293	0.4676	1029.2	5.9
293	0.601	993.9	5.5
293	0.7009	960.5	5.2
293	0.7783	928.8	4.8
293	0.8405	898.5	4.5
293	0.8913	869.7	4.3
293	0.9335	842.3	4
293	0.9693	816.2	3.8
293	1	791.1	3.5
303	0	1095	6.7
303	0.2808	1056	6.3
303	0.4676	1019	5.8
303	0.601	983.7	5.4
303	0.7009	950.4	5.1
303	0.7783	918.9	4.8
303	0.8405	888.8	4.5
303	0.8913	860.1	4.2
303	0.9335	832.9	3.9
303	0.9693	806.8	3.7
303	1	781.9	3.5
313	0	1082	6.6
313	0.2808	1044	6.1
313	0.4676	1007	5.7
313	0.601	972.5	5.3
313	0.7009	939.4	5
313	0.7783	908.1	4.7
313	0.8405	878.3	4.4
313	0.8913	849.9	4.1
313	0.9335	822.9	3.9
313	0.9693	797.1	3.6
313	1	772.4	3.4

System: methanol + bromobenzene; phases: Liquid
Fixed: Pressure, kPa = 101
Property: Viscosity, Pa*s (Liquid); method: Capillary tube (Ostwald; Ubbelohde) method
Temperature, K	Mole fraction of methanol	Viscosity, Pa*s	uncertainty
293	0	0.001164	3.2e-05
293	0.3528	0.001124	3.09e-05
293	0.5504	0.001008	2.77e-05
293	0.6775	0.0008873	2.44e-05
293	0.7657	0.0008144	2.24e-05
293	0.8305	0.0007619	2.1e-05
293	0.8802	0.0007235	1.99e-05
293	0.9195	0.000686	1.89e-05
293	0.9552	0.000657	1.81e-05
293	0.9778	0.0006312	1.74e-05
293	1	0.000591	1.63e-05
303	0	0.0009844	2.71e-05
303	0.3528	0.0009306	2.56e-05
303	0.5504	0.0008356	2.3e-05
303	0.6775	0.000742	2.05e-05
303	0.7657	0.0006962	1.92e-05
303	0.8305	0.0006467	1.78e-05
303	0.8802	0.000617	1.7e-05
303	0.9195	0.0005891	1.63e-05
303	0.9552	0.0005651	1.56e-05
303	0.9778	0.0005344	1.48e-05
303	1	0.000518	1.43e-05
313	0	0.0008786	2.42e-05
313	0.3528	0.0008142	2.24e-05
313	0.5504	0.0007399	2.04e-05
313	0.6775	0.0006444	1.78e-05
313	0.7657	0.0006019	1.66e-05
313	0.8305	0.0005686	1.57e-05
313	0.8802	0.0005451	1.51e-05
313	0.9195	0.000513	1.42e-05
313	0.9552	0.00049	1.36e-05
313	0.9778	0.0004773	1.32e-05
313	1	0.00045	1.25e-05

System: methanol + bromobenzene; phases: Liquid
Fixed: Pressure, kPa = 101
Property: Mass density, kg/m3 (Liquid); method: Pycnometric method
Temperature, K	Mole fraction of methanol	Mass density, kg/m3	uncertainty
293	0	1497	12.4
293	0.3528	1381	10.6
293	0.5504	1280	9.1
293	0.6775	1192	7.9
293	0.7657	1114	6.9
293	0.8305	1045	6.1
293	0.8802	983	5.4
293	0.9195	927.6	4.8
293	0.9552	871.4	4.3
293	0.9778	832.3	3.9
293	1	791.1	3.5
303	0	1483	12.2
303	0.3528	1367	10.4
303	0.5504	1267	9
303	0.6775	1179	7.8
303	0.7657	1102	6.8
303	0.8305	1033	6
303	0.8802	972.1	5.3
303	0.9195	917.2	4.8
303	0.9552	861.5	4.2
303	0.9778	822.8	3.8
303	1	781.9	3.5
313	0	1467	12
313	0.3528	1352	10.2
313	0.5504	1253	8.8
313	0.6775	1166	7.6
313	0.7657	1089	6.7
313	0.8305	1021	5.9
313	0.8802	960.7	5.2
313	0.9195	906.4	4.7
313	0.9552	851.1	4.1
313	0.9778	812.9	3.8
313	1	772.4	3.4
