Measured thermophysical data. Volumetric Properties of 3-Methylbutyl Ethanoate with Ethyl Acrylate, Butyl Acrylate, Methyl Methacrylate, and Styrene at 25 C
Source: Int. J. Thermophys., 2005, 10.1007/s10765-005-5571-9
Compound 1: 3-methylbutyl ethanoate, C7H14O2, InChI=1S/C7H14O2/c1-6(2)4-5-9-7(3)8/h6H,4-5H2,1-3H3, purity 99.34%
Compound 2: ethyl propenoate, C5H8O2, InChI=1S/C5H8O2/c1-3-5(6)7-4-2/h3H,1,4H2,2H3, purity 99.8%
Compound 3: butyl 2-propenoate, C7H12O2, InChI=1S/C7H12O2/c1-3-5-6-9-7(8)4-2/h4H,2-3,5-6H2,1H3, purity 99.9%
Compound 4: methyl methacrylate, C5H8O2, InChI=1S/C5H8O2/c1-4(2)5(6)7-3/h1H2,2-3H3, purity 99.9%
Compound 5: styrene, C8H8, InChI=1S/C8H8/c1-2-8-6-4-3-5-7-8/h2-7H,1H2, purity 99.9%

System: 3-methylbutyl ethanoate; phases: Liquid
Property: Mass density, kg/m3 (Liquid); method: VIBTUB:UFactor:2
Temperature, K	Pressure, kPa	Mass density, kg/m3	uncertainty
298.15	101.3	867.356	0.362

System: ethyl propenoate; phases: Liquid
Property: Mass density, kg/m3 (Liquid); method: VIBTUB:UFactor:2
Temperature, K	Pressure, kPa	Mass density, kg/m3	uncertainty
298.15	101.3	916.124	0.195

System: butyl 2-propenoate; phases: Liquid
Property: Mass density, kg/m3 (Liquid); method: VIBTUB:UFactor:2
Temperature, K	Pressure, kPa	Mass density, kg/m3	uncertainty
298.15	101.3	893.947	0.198

System: methyl methacrylate; phases: Liquid
Property: Mass density, kg/m3 (Liquid); method: VIBTUB:UFactor:2
Temperature, K	Pressure, kPa	Mass density, kg/m3	uncertainty
298.15	101.3	937.628	0.159

System: styrene; phases: Liquid
Property: Mass density, kg/m3 (Liquid); method: VIBTUB:UFactor:2
Temperature, K	Pressure, kPa	Mass density, kg/m3	uncertainty
298.15	101.3	901.941	0.191

System: 3-methylbutyl ethanoate + butyl 2-propenoate; phases: Liquid
Fixed: Temperature, K = 298
Fixed: Pressure, kPa = 101.3
Property: Mass density, kg/m3 (Liquid); method: VIBTUB:UFactor:2
Mole fraction of 3-methylbutyl ethanoate	Mass density, kg/m3	uncertainty
0	893.947	0.198
0.0257	893.222	0.2
0.0496	892.552	0.203
0.1035	891.059	0.208
0.1504	889.769	0.214
0.2	888.407	0.22
0.2504	887.04	0.227
0.2999	885.689	0.234
0.3512	884.304	0.242
0.4001	882.985	0.249
0.4521	881.596	0.258
0.5	880.304	0.266
0.55	878.984	0.275
0.6	877.664	0.284
0.65	876.356	0.293
0.7003	875.048	0.303
0.7502	873.751	0.312
0.7998	872.467	0.322
0.85	871.176	0.332
0.9	869.889	0.342
0.95	868.618	0.352
0.9752	867.98	0.357
1	867.356	0.362

System: 3-methylbutyl ethanoate + ethyl propenoate; phases: Liquid
Fixed: Temperature, K = 298
Fixed: Pressure, kPa = 101.3
Property: Mass density, kg/m3 (Liquid); method: VIBTUB:UFactor:2
Mole fraction of 3-methylbutyl ethanoate	Mass density, kg/m3	uncertainty
0	916.124	0.195
0.031	913.999	0.2
0.0501	912.721	0.203
0.0999	909.503	0.211
0.1505	906.326	0.219
0.2012	903.286	0.227
0.2501	900.442	0.235
0.301	897.604	0.244
0.3512	894.897	0.252
0.402	892.257	0.261
0.4505	889.84	0.269
0.501	887.406	0.278
0.5502	885.117	0.286
0.6002	882.87	0.294
0.6518	880.634	0.303
0.7001	878.602	0.311
0.7499	876.582	0.319
0.8008	874.573	0.328
0.8514	872.644	0.336
0.9001	870.846	0.345
0.9503	869.055	0.353
0.9752	868.197	0.358
1	867.356	0.362

System: methyl methacrylate + 3-methylbutyl ethanoate; phases: Liquid
Fixed: Temperature, K = 298
Fixed: Pressure, kPa = 101.3
Property: Mass density, kg/m3 (Liquid); method: VIBTUB:UFactor:2
Mole fraction of 3-methylbutyl ethanoate	Mass density, kg/m3	uncertainty
0	937.628	0.159
0.0263	934.984	0.163
0.0515	932.526	0.167
0.1007	927.871	0.177
0.1599	922.52	0.188
0.2002	919.025	0.196
0.25	914.86	0.206
0.3053	910.408	0.217
0.3502	906.93	0.227
0.4005	903.17	0.237
0.4504	899.578	0.248
0.5005	896.102	0.259
0.5502	892.767	0.268
0.6005	889.513	0.279
0.6538	886.188	0.289
0.7003	883.384	0.299
0.7508	880.451	0.309
0.8003	877.66	0.32
0.85	874.956	0.33
0.9002	872.311	0.341
0.9499	869.798	0.351
0.9751	868.558	0.357
1	867.356	0.362

System: styrene + 3-methylbutyl ethanoate; phases: Liquid
Fixed: Temperature, K = 298
Fixed: Pressure, kPa = 101.3
Property: Mass density, kg/m3 (Liquid); method: VIBTUB:UFactor:2
Mole fraction of 3-methylbutyl ethanoate	Mass density, kg/m3	uncertainty
0	901.941	0.191
0.0293	900.833	0.194
0.0529	899.946	0.196
0.0997	898.18	0.202
0.1502	896.274	0.208
0.2	894.422	0.215
0.2502	892.59	0.222
0.3064	890.541	0.231
0.3509	888.929	0.238
0.4042	887.046	0.247
0.4508	885.398	0.256
0.5011	883.646	0.265
0.5571	881.719	0.275
0.6002	880.257	0.283
0.6507	878.546	0.292
0.7003	876.895	0.302
0.7514	875.198	0.312
0.7999	873.614	0.321
0.8507	871.983	0.331
0.9005	870.41	0.342
0.9499	868.881	0.352
0.9747	868.119	0.357
1	867.356	0.362
