Measured thermophysical data. Volumetric Properties, Viscosities, and Refractive Indices of the Binary Systems 1-Butanol + PEG 200, + PEG 400, and + TEGDME
Source: Int. J. Thermophys., 2013, 10.1007/s10765-013-1469-0
Compound 1: butan-1-ol, C4H10O, InChI=1S/C4H10O/c1-2-3-4-5/h5H,2-4H2,1H3, purity 99.5%
Compound 2: 2,5,8,11,14-pentaoxapentadecane, C10H22O5, InChI=1S/C10H22O5/c1-11-3-5-13-7-9-15-10-8-14-6-4-12-2/h3-10H2,1-2H3, purity 99.5%

System: butan-1-ol; phases: Liquid
Fixed: Pressure, kPa = 101
Property: Mass density, kg/m3 (Liquid); method: Vibrating tube method
Temperature, K	Mass density, kg/m3	uncertainty
288.15	813.407	0.144
293.15	809.621	0.145
298.15	805.804	0.146
303.15	801.964	0.147
308.15	798.091	0.149
313.15	794.181	0.15
318.15	790.229	0.151
323.15	786.228	0.153
328.15	782.172	0.154
333.15	778.056	0.155

System: butan-1-ol; phases: Liquid
Fixed: Pressure, kPa = 101
Property: Viscosity, Pa*s (Liquid); method: Concentric cylinders viscometry
Temperature, K	Viscosity, Pa*s	uncertainty
288.15	0.0033564	3.1e-05
293.15	0.0029653	2.76e-05
298.15	0.0025928	2.43e-05
303.15	0.0022771	2.16e-05
308.15	0.0020082	1.92e-05
313.15	0.0017796	1.72e-05
318.15	0.0015825	1.55e-05
323.15	0.001412	1.4e-05
328.15	0.0012644	1.28e-05
333.15	0.0011316	1.16e-05

System: butan-1-ol; phases: Liquid
Fixed: Pressure, kPa = 101.325
Property: Refractive index (Na D-line) (Liquid); method: Standard Abbe refractometry
Temperature, K	Refractive index (Na D-line)	uncertainty
288.15	1.40131	0.00033
293.15	1.39932	0.00033
298.15	1.39729	0.00033
303.15	1.39529	0.00033
308.15	1.39317	0.00033
313.15	1.39104	0.00033
318.15	1.38893	0.00033
323.15	1.38683	0.00033
328.15	1.38474	0.00033
333.15	1.38237	0.00033

System: 2,5,8,11,14-pentaoxapentadecane; phases: Liquid
Fixed: Pressure, kPa = 101
Property: Mass density, kg/m3 (Liquid); method: Vibrating tube method
Temperature, K	Mass density, kg/m3	uncertainty
288.15	1015.63	0.104
293.15	1010.995	0.102
298.15	1006.359	0.1
303.15	1001.732	0.098
308.15	997.104	0.098
313.15	992.481	0.099
318.15	987.859	0.1
323.15	983.234	0.101
328.15	978.613	0.103
333.15	973.989	0.104

System: 2,5,8,11,14-pentaoxapentadecane; phases: Liquid
Fixed: Pressure, kPa = 101
Property: Viscosity, Pa*s (Liquid); method: Concentric cylinders viscometry
Temperature, K	Viscosity, Pa*s	uncertainty
288.15	0.0043415	3.97e-05
293.15	0.0038338	3.53e-05
298.15	0.0033801	3.13e-05
303.15	0.0030042	2.79e-05
308.15	0.0026913	2.52e-05
313.15	0.0024258	2.29e-05
318.15	0.0021994	2.09e-05
323.15	0.0020063	1.92e-05
328.15	0.0018382	1.77e-05
333.15	0.0016914	1.64e-05

System: 2,5,8,11,14-pentaoxapentadecane; phases: Liquid
Fixed: Pressure, kPa = 101.325
Property: Refractive index (Na D-line) (Liquid); method: Standard Abbe refractometry
Temperature, K	Refractive index (Na D-line)	uncertainty
288.15	1.4345	0.00033
293.15	1.43238	0.00033
298.15	1.43027	0.00033
303.15	1.42815	0.00033
308.15	1.42603	0.00033
313.15	1.42394	0.00033
318.15	1.42183	0.00033
323.15	1.41973	0.00033
328.15	1.41765	0.00033
333.15	1.41553	0.00033

System: butan-1-ol + 2,5,8,11,14-pentaoxapentadecane; phases: Liquid
Fixed: Pressure, kPa = 101
Property: Mass density, kg/m3 (Liquid); method: Vibrating tube method
Temperature, K	Mole fraction of butan-1-ol	Mass density, kg/m3	uncertainty
288.15	0	1015.63	0.104
288.15	0.1013	1006.514	0.098
288.15	0.2236	993.986	0.096
288.15	0.3036	984.642	0.098
288.15	0.4131	969.983	0.101
288.15	0.5065	955.349	0.105
288.15	0.5996	938.288	0.108
288.15	0.7007	916.154	0.113
288.15	0.7991	889.873	0.121
288.15	0.8996	856.379	0.132
288.15	1	813.407	0.144
293.15	0	1010.995	0.102
293.15	0.1013	1001.909	0.099
293.15	0.2236	989.415	0.1
293.15	0.3036	980.1	0.103
293.15	0.4131	965.493	0.107
293.15	0.5065	950.916	0.111
293.15	0.5996	933.921	0.115
293.15	0.7007	911.881	0.121
293.15	0.7991	885.715	0.13
293.15	0.8996	852.384	0.141
293.15	1	809.621	0.145
298.15	0	1006.359	0.1
298.15	0.1013	997.307	0.098
298.15	0.2236	984.881	0.101
298.15	0.3036	975.56	0.104
298.15	0.4131	960.897	0.108
298.15	0.5065	946.305	0.111
298.15	0.5996	929.548	0.116
298.15	0.7007	907.599	0.123
298.15	0.7991	881.548	0.131
298.15	0.8996	848.369	0.142
298.15	1	805.804	0.146
303.15	0	1001.732	0.098
303.15	0.1013	992.702	0.1
303.15	0.2236	980.276	0.103
303.15	0.3036	971.014	0.105
303.15	0.4131	956.499	0.108
303.15	0.5065	942.026	0.112
303.15	0.5996	925.164	0.117
303.15	0.7007	903.304	0.124
303.15	0.7991	877.365	0.132
303.15	0.8996	844.334	0.143
303.15	1	801.964	0.147
308.15	0	997.104	0.098
308.15	0.1013	988.097	0.101
308.15	0.2236	975.701	0.104
308.15	0.3036	966.466	0.106
308.15	0.4131	951.994	0.11
308.15	0.5065	937.569	0.114
308.15	0.5996	920.77	0.119
308.15	0.7007	898.993	0.125
308.15	0.7991	873.162	0.133
308.15	0.8996	840.275	0.144
308.15	1	798.091	0.149
313.15	0	992.481	0.099
313.15	0.1013	983.495	0.102
313.15	0.2236	971.126	0.105
313.15	0.3036	961.914	0.107
313.15	0.4131	947.487	0.111
313.15	0.5065	933.108	0.115
313.15	0.5996	916.363	0.12
313.15	0.7007	894.665	0.126
313.15	0.7991	868.935	0.134
313.15	0.8996	836.188	0.145
313.15	1	794.181	0.15
318.15	0	987.859	0.1
318.15	0.1013	978.879	0.103
318.15	0.2236	966.542	0.106
318.15	0.3036	957.357	0.109
318.15	0.4131	942.969	0.112
318.15	0.5065	928.631	0.116
318.15	0.5996	911.939	0.121
318.15	0.7007	890.317	0.127
318.15	0.7991	864.686	0.136
318.15	0.8996	832.069	0.147
318.15	1	790.229	0.151
323.15	0	983.234	0.101
323.15	0.1013	974.275	0.104
323.15	0.2236	961.962	0.107
323.15	0.3036	952.794	0.11
323.15	0.4131	938.437	0.113
323.15	0.5065	924.136	0.117
323.15	0.5996	907.495	0.122
323.15	0.7007	885.946	0.129
323.15	0.7991	860.406	0.137
323.15	0.8996	827.911	0.148
323.15	1	786.228	0.153
328.15	0	978.613	0.103
328.15	0.1013	969.653	0.105
328.15	0.2236	957.366	0.108
328.15	0.3036	948.222	0.111
328.15	0.4131	933.901	0.115
328.15	0.5065	919.635	0.119
328.15	0.5996	903.036	0.124
328.15	0.7007	881.55	0.13
328.15	0.7991	856.094	0.138
328.15	0.8996	823.712	0.149
328.15	1	782.172	0.154
333.15	0	973.989	0.104
333.15	0.1013	965.036	0.109
333.15	0.2236	952.77	0.112
333.15	0.3036	943.642	0.115
333.15	0.4131	929.347	0.12
333.15	0.5065	915.11	0.125
333.15	0.5996	898.551	0.131
333.15	0.7007	877.126	0.14
333.15	0.7991	851.747	0.151
333.15	0.8996	819.469	0.166
333.15	1	778.056	0.155

System: butan-1-ol + 2,5,8,11,14-pentaoxapentadecane; phases: Liquid
Fixed: Pressure, kPa = 101
Property: Viscosity, Pa*s (Liquid); method: Concentric cylinders viscometry
Temperature, K	Mole fraction of butan-1-ol	Viscosity, Pa*s	uncertainty
288.15	0	0.0043415	3.97e-05
288.15	0.1013	0.0040772	3.74e-05
288.15	0.2236	0.0037789	3.48e-05
288.15	0.3036	0.0035675	3.29e-05
288.15	0.4131	0.0033168	3.07e-05
288.15	0.5065	0.0031295	2.9e-05
288.15	0.5996	0.0029447	2.74e-05
288.15	0.7007	0.002795	2.61e-05
288.15	0.7991	0.0027397	2.56e-05
288.15	0.8996	0.0028752	2.68e-05
288.15	1	0.0033564	3.1e-05
293.15	0	0.0038338	3.53e-05
293.15	0.1013	0.0035906	3.31e-05
293.15	0.2236	0.0033145	3.07e-05
293.15	0.3036	0.0031391	2.91e-05
293.15	0.4131	0.0029216	2.72e-05
293.15	0.5065	0.0027699	2.59e-05
293.15	0.5996	0.002603	2.44e-05
293.15	0.7007	0.0024744	2.33e-05
293.15	0.7991	0.0024276	2.29e-05
293.15	0.8996	0.0025458	2.39e-05
293.15	1	0.0029653	2.76e-05
298.15	0	0.0033801	3.13e-05
298.15	0.1013	0.0031519	2.92e-05
298.15	0.2236	0.0029296	2.73e-05
298.15	0.3036	0.0027834	2.6e-05
298.15	0.4131	0.0025989	2.44e-05
298.15	0.5065	0.002462	2.32e-05
298.15	0.5996	0.0023206	2.19e-05
298.15	0.7007	0.0022059	2.09e-05
298.15	0.7991	0.0021653	2.06e-05
298.15	0.8996	0.0022629	2.14e-05
298.15	1	0.0025928	2.43e-05
303.15	0	0.0030042	2.79e-05
303.15	0.1013	0.0028139	2.63e-05
303.15	0.2236	0.0026202	2.46e-05
303.15	0.3036	0.0024881	2.34e-05
303.15	0.4131	0.0023279	2.2e-05
303.15	0.5065	0.0022077	2.1e-05
303.15	0.5996	0.0020867	1.99e-05
303.15	0.7007	0.0019868	1.9e-05
303.15	0.7991	0.0019453	1.87e-05
303.15	0.8996	0.002015	1.93e-05
303.15	1	0.0022771	2.16e-05
308.15	0	0.0026913	2.52e-05
308.15	0.1013	0.0025252	2.37e-05
308.15	0.2236	0.0023571	2.23e-05
308.15	0.3036	0.002241	2.12e-05
308.15	0.4131	0.0021003	2e-05
308.15	0.5065	0.0019914	1.91e-05
308.15	0.5996	0.001885	1.81e-05
308.15	0.7007	0.0017964	1.74e-05
308.15	0.7991	0.0017568	1.7e-05
308.15	0.8996	0.0018067	1.75e-05
308.15	1	0.0020082	1.92e-05
313.15	0	0.0024258	2.29e-05
313.15	0.1013	0.0022777	2.16e-05
313.15	0.2236	0.0021337	2.03e-05
313.15	0.3036	0.0020341	1.94e-05
313.15	0.4131	0.0019055	1.83e-05
313.15	0.5065	0.0018117	1.75e-05
313.15	0.5996	0.0017119	1.66e-05
313.15	0.7007	0.0016305	1.59e-05
313.15	0.7991	0.0015924	1.56e-05
313.15	0.8996	0.001628	1.59e-05
313.15	1	0.0017796	1.72e-05
318.15	0	0.0021994	2.09e-05
318.15	0.1013	0.0020742	1.98e-05
318.15	0.2236	0.0019424	1.86e-05
318.15	0.3036	0.0018526	1.78e-05
318.15	0.4131	0.001738	1.69e-05
318.15	0.5065	0.0016534	1.61e-05
318.15	0.5996	0.0015616	1.53e-05
318.15	0.7007	0.0014875	1.47e-05
318.15	0.7991	0.0014495	1.44e-05
318.15	0.8996	0.0014699	1.45e-05
318.15	1	0.0015825	1.55e-05
323.15	0	0.0020063	1.92e-05
323.15	0.1013	0.001892	1.82e-05
323.15	0.2236	0.0017769	1.72e-05
323.15	0.3036	0.0016977	1.65e-05
323.15	0.4131	0.0015921	1.56e-05
323.15	0.5065	0.0015152	1.49e-05
323.15	0.5996	0.0014316	1.42e-05
323.15	0.7007	0.0013624	1.36e-05
323.15	0.7991	0.0013245	1.33e-05
323.15	0.8996	0.0013335	1.34e-05
323.15	1	0.001412	1.4e-05
328.15	0	0.0018382	1.77e-05
328.15	0.1013	0.0017359	1.68e-05
328.15	0.2236	0.0016326	1.59e-05
328.15	0.3036	0.0015578	1.53e-05
328.15	0.4131	0.0014648	1.45e-05
328.15	0.5065	0.0013937	1.39e-05
328.15	0.5996	0.0013178	1.32e-05
328.15	0.7007	0.0012542	1.27e-05
328.15	0.7991	0.0012132	1.23e-05
328.15	0.8996	0.0012091	1.23e-05
328.15	1	0.0012644	1.28e-05
333.15	0	0.0016914	1.64e-05
333.15	0.1013	0.0016121	1.58e-05
333.15	0.2236	0.0015161	1.49e-05
333.15	0.3036	0.0014485	1.43e-05
333.15	0.4131	0.0013589	1.36e-05
333.15	0.5065	0.001289	1.3e-05
333.15	0.5996	0.0012226	1.24e-05
333.15	0.7007	0.0011611	1.19e-05
333.15	0.7991	0.0011193	1.15e-05
333.15	0.8996	0.0011044	1.14e-05
333.15	1	0.0011316	1.16e-05

System: butan-1-ol + 2,5,8,11,14-pentaoxapentadecane; phases: Liquid
Fixed: Pressure, kPa = 101
Property: Refractive index (Na D-line) (Liquid); method: Standard Abbe refractometry
Temperature, K	Mole fraction of butan-1-ol	Refractive index (Na D-line)	uncertainty
288.15	0	1.4345	0.00033
288.15	0.1013	1.43292	0.00033
288.15	0.2236	1.43083	0.00033
288.15	0.3036	1.42941	0.00033
288.15	0.4131	1.42694	0.00033
288.15	0.5065	1.42465	0.00033
288.15	0.5996	1.42188	0.00033
288.15	0.7007	1.41822	0.00033
288.15	0.7991	1.41381	0.00033
288.15	0.8996	1.40823	0.00033
288.15	1	1.40131	0.00033
293.15	0	1.43238	0.00033
293.15	0.1013	1.43079	0.00033
293.15	0.2236	1.42871	0.00033
293.15	0.3036	1.4273	0.00033
293.15	0.4131	1.42482	0.00033
293.15	0.5065	1.42256	0.00033
293.15	0.5996	1.41981	0.00033
293.15	0.7007	1.41614	0.00033
293.15	0.7991	1.41175	0.00033
293.15	0.8996	1.40619	0.00033
293.15	1	1.39932	0.00033
298.15	0	1.43027	0.00033
298.15	0.1013	1.42868	0.00033
298.15	0.2236	1.42659	0.00033
298.15	0.3036	1.42517	0.00033
298.15	0.4131	1.42271	0.00033
298.15	0.5065	1.42044	0.00033
298.15	0.5996	1.41772	0.00033
298.15	0.7007	1.41408	0.00033
298.15	0.7991	1.40972	0.00033
298.15	0.8996	1.40418	0.00033
298.15	1	1.39729	0.00033
303.15	0	1.42815	0.00033
303.15	0.1013	1.42658	0.00033
303.15	0.2236	1.42448	0.00033
303.15	0.3036	1.42306	0.00033
303.15	0.4131	1.42058	0.00033
303.15	0.5065	1.4183	0.00033
303.15	0.5996	1.41558	0.00033
303.15	0.7007	1.41199	0.00033
303.15	0.7991	1.40769	0.00033
303.15	0.8996	1.40216	0.00033
303.15	1	1.39529	0.00033
308.15	0	1.42603	0.00033
308.15	0.1013	1.42448	0.00033
308.15	0.2236	1.42237	0.00033
308.15	0.3036	1.42094	0.00033
308.15	0.4131	1.41846	0.00033
308.15	0.5065	1.41616	0.00033
308.15	0.5996	1.41346	0.00033
308.15	0.7007	1.40985	0.00033
308.15	0.7991	1.40559	0.00033
308.15	0.8996	1.40005	0.00033
308.15	1	1.39317	0.00033
313.15	0	1.42394	0.00033
313.15	0.1013	1.42237	0.00033
313.15	0.2236	1.42024	0.00033
313.15	0.3036	1.41881	0.00033
313.15	0.4131	1.41635	0.00033
313.15	0.5065	1.41403	0.00033
313.15	0.5996	1.41132	0.00033
313.15	0.7007	1.40775	0.00033
313.15	0.7991	1.40349	0.00033
313.15	0.8996	1.39795	0.00033
313.15	1	1.39104	0.00033
318.15	0	1.42183	0.00033
318.15	0.1013	1.42027	0.00033
318.15	0.2236	1.41815	0.00033
318.15	0.3036	1.41673	0.00033
318.15	0.4131	1.41424	0.00033
318.15	0.5065	1.41192	0.00033
318.15	0.5996	1.40924	0.00033
318.15	0.7007	1.40562	0.00033
318.15	0.7991	1.40133	0.00033
318.15	0.8996	1.39583	0.00033
318.15	1	1.38893	0.00033
323.15	0	1.41973	0.00033
323.15	0.1013	1.41818	0.00033
323.15	0.2236	1.41604	0.00033
323.15	0.3036	1.41461	0.00033
323.15	0.4131	1.4121	0.00033
323.15	0.5065	1.40977	0.00033
323.15	0.5996	1.40709	0.00033
323.15	0.7007	1.40351	0.00033
323.15	0.7991	1.39924	0.00033
323.15	0.8996	1.39374	0.00033
323.15	1	1.38683	0.00033
328.15	0	1.41765	0.00033
328.15	0.1013	1.41611	0.00033
328.15	0.2236	1.41396	0.00033
328.15	0.3036	1.41251	0.00033
328.15	0.4131	1.40998	0.00033
328.15	0.5065	1.40763	0.00033
328.15	0.5996	1.40491	0.00033
328.15	0.7007	1.40133	0.00033
328.15	0.7991	1.39712	0.00033
328.15	0.8996	1.3916	0.00033
328.15	1	1.38474	0.00033
333.15	0	1.41553	0.00033
333.15	0.1013	1.41403	0.00033
333.15	0.2236	1.41186	0.00033
333.15	0.3036	1.4104	0.00033
333.15	0.4131	1.40784	0.00033
333.15	0.5065	1.40547	0.00033
333.15	0.5996	1.40273	0.00033
333.15	0.7007	1.39917	0.00033
333.15	0.7991	1.39497	0.00033
333.15	0.8996	1.38936	0.00033
333.15	1	1.38237	0.00033
