Measured thermophysical data. An Experimental Study of the pVTx Properties for Aqueous Solutions of Ammonia Focusing on the Maximum Density Region1
Source: Int. J. Thermophys., 2005, 10.1007/s10765-005-8590-7
Compound 1: ammonia, H3N, InChI=1S/H3N/h1H3, purity 99.999%
Compound 2: water, H2O, InChI=1S/H2O/h1H2

System: water; phases: Fluid (supercritical or subcritical phases)
Property: Mass density, kg/m3 (Fluid (supercritical or subcritical phases)); method: Constant-volume piezometry
Temperature, K	Pressure, kPa	Mass density, kg/m3	uncertainty
270.152	4074.2	1001.546	0.217
271.167	3818.6	1001.517	0.216
272.041	5219	1002.298	0.219
272.127	3596.6	1001.489	0.216
273.099	3402.1	1001.459	0.215
273.15	5009.6	1002.262	0.219
274.12	13436.8	1006.525	0.246
274.15	4843.5	1002.229	0.218
274.153	3220.1	1001.425	0.215
275.146	4716.5	1002.192	0.219
275.163	3074.5	1001.389	0.215
275.18	13354.9	1006.481	0.246
276.123	4614.4	1002.156	0.219
276.156	13306.4	1006.44	0.247
276.166	2960.4	1001.353	0.215
276.176	13305	1006.44	0.247
277.15	4535.3	1002.115	0.219
277.151	2875.8	1001.315	0.215
277.161	13281.6	1006.397	0.247
278.129	4490.8	1002.075	0.219
278.156	2819.8	1001.274	0.215
278.161	13288.2	1006.352	0.248
279.103	4468.4	1002.033	0.219
279.164	2790.3	1001.231	0.215
279.166	13328.5	1006.305	0.249
280.101	4469.1	1001.99	0.22
280.166	13373.6	1006.258	0.249
281.077	2807.6	1001.145	0.216
281.139	4509	1001.939	0.22
281.174	13456	1006.209	0.25
282.135	13562.1	1006.161	0.251
283.153	4649.5	1001.841	0.221
283.18	13665.2	1006.109	0.252
285.14	13994.2	1006.006	0.255
286.052	5038.7	1001.687	0.223
288.147	14714.1	1005.837	0.26
289.17	5677.6	1001.507	0.226
292.123	6505.6	1001.325	0.23
296.128	7938.8	1001.06	0.237
300.129	9714.8	1000.779	0.245
305.191	12423.7	1000.408	0.259
308.16	14234	1000.186	0.269

System: ammonia + water; phases: Fluid (supercritical or subcritical phases)
Property: Mass density, kg/m3 (Fluid (supercritical or subcritical phases)); method: Constant-volume piezometry
Mole fraction of ammonia	Temperature, K	Pressure, kPa	Mass density, kg/m3	uncertainty
0	270.152	4074.2	1001.546	0.217
0	271.167	3818.6	1001.517	0.216
0	272.041	5219	1002.298	0.219
0	272.127	3596.6	1001.489	0.216
0	273.099	3402.1	1001.459	0.215
0	273.15	5009.6	1002.262	0.219
0	274.12	13436.8	1006.525	0.246
0	274.15	4843.5	1002.229	0.218
0	274.153	3220.1	1001.425	0.215
0	275.146	4716.5	1002.192	0.219
0	275.163	3074.5	1001.389	0.215
0	275.18	13354.9	1006.481	0.246
0	276.123	4614.4	1002.156	0.219
0	276.156	13306.4	1006.44	0.247
0	276.166	2960.4	1001.353	0.215
0	276.176	13305	1006.44	0.247
0	277.15	4535.3	1002.115	0.219
0	277.151	2875.8	1001.315	0.215
0	277.161	13281.6	1006.397	0.247
0	278.129	4490.8	1002.075	0.219
0	278.156	2819.8	1001.274	0.215
0	278.161	13288.2	1006.352	0.248
0	279.103	4468.4	1002.033	0.219
0	279.164	2790.3	1001.231	0.215
0	279.166	13328.5	1006.305	0.249
0	280.101	4469.1	1001.99	0.22
0	280.166	13373.6	1006.258	0.249
0	281.077	2807.6	1001.145	0.216
0	281.139	4509	1001.939	0.22
0	281.174	13456	1006.209	0.25
0	282.135	13562.1	1006.161	0.251
0	283.153	4649.5	1001.841	0.221
0	283.18	13665.2	1006.109	0.252
0	285.14	13994.2	1006.006	0.255
0	286.052	5038.7	1001.687	0.223
0	288.147	14714.1	1005.837	0.26
0	289.17	5677.6	1001.507	0.226
0	292.123	6505.6	1001.325	0.23
0	296.128	7938.8	1001.06	0.237
0	300.129	9714.8	1000.779	0.245
0	305.191	12423.7	1000.408	0.259
0	308.16	14234	1000.186	0.269
0.014	271.15	3960.4	996.21	0.227
0.014	272.151	3778.7	996.18	0.228
0.014	273.15	3633.6	996.14	0.228
0.014	273.15	3634.2	996.14	0.228
0.014	275.15	3430.4	996.07	0.227
0.014	275.15	3431.2	996.07	0.227
0.014	277.15	3335.7	995.99	0.228
0.014	279.15	3348.5	995.9	0.228
0.014	281.15	3472.7	995.8	0.229
0.014	283.15	3692.3	995.7	0.228
0.014	285.15	4011.8	995.59	0.23
0.014	287.15	4434.3	995.47	0.238
0.014	289.15	4946.6	995.35	0.242
0.014	291.15	5561.2	995.22	0.242
0.014	293.15	6247.6	995.09	0.246
0.014	295.15	7035	994.95	0.241
0.014	297.15	7909.9	994.81	0.253
0.014	299.15	8841.2	994.66	0.257
0.014	301.15	9880.3	994.51	0.26
0.014	303.15	10919.4	994.37	0.267
0.014	305.15	12107.2	994.21	0.271
0.014	309.15	14684.4	993.9	0.284
0.0302	270.144	4346.8	991.12	0.226
0.0302	271.17	4208.2	991.09	0.226
0.0302	272.15	4113.5	991.05	0.225
0.0302	273.137	4040.3	991.01	0.225
0.0302	274.154	3992.2	990.97	0.225
0.0302	275.153	3970.2	990.93	0.222
0.0302	277.149	4008	990.84	0.226
0.0302	279.146	4150.8	990.74	0.227
0.0302	281.151	4392.5	990.64	0.228
0.0302	283.151	4731.8	990.53	0.232
0.0302	285.146	5171.1	990.41	0.233
0.0302	289.148	6317.7	990.16	0.24
0.0302	292.142	7407.7	989.96	0.245
0.0302	292.146	7429.1	989.96	0.245
0.0302	295.107	8696.2	989.75	0.251
0.0302	298.159	10232.3	989.53	0.258
0.047	266.119	16222.7	989.78	0.259
0.047	267.146	16033.3	989.74	0.258
0.047	268.165	15947.7	989.7	0.257
0.047	269.168	15891.7	989.66	0.256
0.047	270.132	15861.7	989.62	0.256
0.047	270.148	15861.6	989.62	0.256
0.047	271.11	15856.3	989.57	0.255
0.047	271.134	15857.3	989.57	0.255
0.047	272.153	15879.1	989.53	0.255
0.047	273.166	15927.5	989.48	0.254
0.047	274.142	15999.5	989.44	0.255
0.047	275.159	16097.8	989.39	0.256
0.0513	268.099	7316.4	984.85	0.236
0.0513	269.097	7256.7	984.81	0.235
0.0513	269.102	7244.1	984.81	0.234
0.0513	270.152	7195.1	984.77	0.234
0.0513	271.15	7177.2	984.72	0.232
0.0513	272.148	7185.7	984.68	0.231
0.0513	273.15	7219.4	984.63	0.232
0.0513	274.15	7279.5	984.59	0.23
0.0513	275.152	7362.2	984.54	0.232
0.0513	277.151	7604.3	984.44	0.233
0.0513	279.149	7945.5	984.33	0.236
0.0513	281.15	8371.2	984.22	0.238
0.0513	283.15	8879.5	984.1	0.241
0.0513	285.15	9527	983.98	0.244
0.0513	287.151	10223.3	983.85	0.243
0.0513	289.15	11019.7	983.72	0.246
0.0513	291.15	11883.9	983.58	0.25
0.0513	295.149	13851.4	983.31	0.26
0.0582	266.151	2619	979.8	0.217
0.0582	267.133	2495.5	979.77	0.216
0.0582	268.174	2415.7	979.73	0.219
0.0582	269.189	2364.1	979.69	0.22
0.0582	271.177	2339.7	979.6	0.22
0.0582	273.146	2431.2	979.51	0.219
0.0582	275.143	2612.8	979.41	0.22
0.0582	279.142	3259.7	979.2	0.224
0.0582	283.122	4275.1	978.96	0.229
0.0582	287.131	5735.3	978.69	0.234
0.0582	289.136	6552.7	978.56	0.24
0.0582	291.127	7445.3	978.41	0.243
0.0582	293.14	8423.6	978.27	0.25
0.0582	295.119	9437.2	978.12	0.251
0.0582	297.148	10575.9	977.97	0.26
0.0582	299.08	11729.4	977.83	0.261
0.0582	303.201	14357.1	977.51	0.273
0.0582	305.214	15774.3	977.35	0.284
0.0591	265.619	811.9	975.65	0.214
0.0591	266.139	745.3	975.64	0.214
0.0591	266.626	698.1	975.62	0.214
0.0591	267.158	634.7	975.6	0.214
0.0591	269.109	500.6	975.52	0.215
0.0591	271.122	467.5	975.44	0.215
0.0591	273.143	506.6	975.35	0.213
0.0591	275.133	677.5	975.25	0.219
0.0591	277.184	953.2	975.15	0.22
0.0591	281.222	1795.9	974.91	0.222
0.0591	285.172	2999.7	974.66	0.228
0.0591	289.044	4499.1	974.4	0.235
0.0591	293.221	6453.9	974.1	0.242
0.0591	297.22	8637.1	973.79	0.252
0.0591	301.02	10949.8	973.5	0.262
0.0591	305.109	13745.8	973.17	0.279
0.0606	263.965	16219.7	987.12	0.26
0.0606	265.002	16117.1	987.08	0.259
0.0606	265.992	16054.5	987.04	0.258
0.0606	268.025	15973.7	986.96	0.257
0.0606	268.996	15979.4	986.92	0.256
0.0606	270.988	16061.6	986.82	0.256
0.0606	273.143	16262.8	986.71	0.255
0.0606	274.993	16547.3	986.61	0.258
0.0606	277.145	16926.3	986.49	0.261
0.064	265.384	8334.6	980.35	0.23
0.064	266.145	8277	980.32	0.239
0.064	267.142	8221.5	980.28	0.236
0.064	269.149	8192.6	980.19	0.235
0.064	269.151	8194.7	980.19	0.235
0.064	271.151	8265.9	980.1	0.234
0.064	273.151	8435.9	980.01	0.233
0.064	275.148	8702.8	979.9	0.236
0.064	277.142	9054.1	979.8	0.238
0.064	279.171	9525.4	979.68	0.241
0.064	281.13	10065.2	979.57	0.243
0.064	281.186	10107.9	979.56	0.243
0.064	283.153	10706.5	979.44	0.246
0.064	285.163	11435.1	979.32	0.249
0.064	287.129	12205.9	979.19	0.247
0.064	289.15	13114.1	979.06	0.258
0.064	291.15	14080.2	978.92	0.264
0.064	293.156	15112.2	978.78	0.268
0.0644	265.183	5311.9	979.94	0.229
0.0644	267.169	5193.7	979.87	0.228
0.0644	269.145	5179.9	979.78	0.227
0.0644	271.169	5274.3	979.69	0.227
0.0644	275.228	5541.3	979.5	0.227
0.0644	277.197	5773.5	979.4	0.229
0.0644	279.077	6161.2	979.29	0.23
0.0644	281.138	6677.8	979.17	0.234
0.0644	283.174	7273.4	979.05	0.236
0.0644	285.09	7901.4	978.93	0.238
0.0644	287.166	8642.4	978.79	0.241
0.0644	289.215	9475.8	978.66	0.244
0.0644	291.118	10277.9	978.53	0.248
0.0644	293.13	11185.7	978.39	0.245
0.0644	295.15	12162.1	978.25	0.251
0.0644	297.21	13179.9	978.11	0.26
0.0644	299.188	14183.6	977.97	0.263
0.0644	301.105	15141.6	977.84	0.267
0.0955	260.15	3759	968.65	0.232
0.0955	261.148	3737.1	968.61	0.233
0.0955	262.122	3739.8	968.57	0.235
0.0955	263.162	3766.5	968.52	0.236
0.0955	264.11	3813.7	968.48	0.239
0.0955	265.15	3889.7	968.43	0.239
0.0955	269.175	4424	968.23	0.22
0.0955	271.18	4814.2	968.12	0.274
0.0955	275.15	5862	967.89	0.224
0.0955	277.21	6487	967.76	0.226
0.0955	279.12	7195.5	967.64	0.25
0.0955	281.079	7983	967.51	0.233
0.0955	282.8	8732.9	967.39	0.235
0.0955	287.059	10858	967.09	0.244
0.0955	291.164	13202.8	966.79	0.276
0.0955	293.123	14420.9	966.65	0.262
0.0999	260.134	3144.3	971.4	0.262
0.0999	261.151	3146.8	971.36	0.222
0.0999	262.154	3173.9	971.31	0.227
0.0999	263.132	3221.1	971.27	0.227
0.0999	263.157	3225.1	971.27	0.227
0.0999	264.143	3297.9	971.22	0.226
0.0999	265.146	3396.5	971.17	0.226
0.0999	267.153	3654.7	971.07	0.229
0.0999	269.15	4001.7	970.97	0.229
0.0999	271.156	4437.7	970.85	0.586
0.0999	273.134	4952	970.74	0.218
0.0999	276.155	5893.5	970.55	0.248
0.0999	279.116	6995.3	970.36	0.25
0.0999	282.163	8309.2	970.16	0.293
0.0999	288.135	11389	969.74	0.239
0.0999	288.142	11389	969.74	0.239
0.0999	291.131	13171.6	969.52	0.276
0.0999	294.151	15125.4	969.3	0.26
0.1086	259.151	1375.1	964.04	0.216
0.1086	260.15	1417.1	963.99	0.216
0.1086	261.145	1483.6	963.95	0.216
0.1086	262.147	1572	963.9	0.218
0.1086	263.13	1676.5	963.85	0.218
0.1086	263.132	1686.6	963.85	0.218
0.1086	264.152	1824.1	963.8	0.218
0.1086	265.155	1981.7	963.75	0.215
0.1086	267.149	2355.6	963.64	0.215
0.1086	269.143	2812.6	963.53	0.216
0.1086	271.142	3349.5	963.41	0.216
0.1086	273.148	3935	963.29	0.216
0.1086	275.147	4633.1	963.16	0.219
0.1086	277.145	5409.4	963.03	0.226
0.1086	280.142	6718.7	962.82	0.23
0.1086	283.141	8193.3	962.61	0.234
0.1086	283.15	8198.4	962.61	0.234
0.1086	286.142	9868.4	962.4	0.237
0.1386	253.18	483.5	956.4	0.211
0.1386	254.14	619.3	956.35	0.211
0.1386	257.061	1159.1	956.19	0.211
0.1386	259.146	1646.6	956.07	0.212
0.1386	261.021	2146.1	955.96	0.213
0.1386	265.135	3469.4	955.71	0.221
0.1386	267.09	4204.5	955.58	0.222
0.1386	269.204	5071.6	955.44	0.224
0.1386	275.08	7892.7	955.03	0.231
0.1386	277.078	8983.2	954.88	0.229
0.1386	279.109	10157.3	954.73	0.233
0.1386	281.112	11383	954.58	0.231
0.1386	283.134	12685.9	954.43	0.25
0.1386	289.151	11639.5	962.18	0.256
0.1436	267.152	298	952.4	0.208
0.1436	268.149	723.3	952.33	0.208
0.1436	269.151	1141.1	952.26	0.209
0.1436	270.151	1609	952.18	0.209
0.1436	271.15	2091.5	952.11	0.21
0.1436	273.151	3104.4	951.96	0.212
0.1436	275.15	4178.5	951.81	0.215
0.1436	277.151	5289	951.66	0.218
0.1436	279.149	6475.7	951.51	0.222
0.1436	282.15	8409.8	951.28	0.229
0.1436	285.148	10464.1	951.05	0.237
0.1436	285.15	10466.3	951.05	0.237
0.1436	285.173	14062.2	954.28	0.252
0.1436	288.151	12627.7	950.81	0.252
0.1436	273.151	3104.4	951.96	0.212
0.1436	275.15	4178.5	951.81	0.215
0.1436	277.151	5289	951.66	0.218
0.1436	279.149	6475.7	951.51	0.222
0.1436	282.15	8409.8	951.28	0.229
0.1436	285.148	10464.1	951.05	0.237
0.1436	285.15	10466.3	951.05	0.237
0.1436	288.151	12627.7	950.81	0.252
