Measured thermophysical data. Conductometric Study of Some Metal Halides in Glycerol + Water Mixtures
Source: Int. J. Thermophys., 2006, 10.1007/s10765-006-0096-4
Compound 1: glycerol, C3H8O3, InChI=1S/C3H8O3/c4-1-3(6)2-5/h3-6H,1-2H2
Compound 2: potassium chloride, ClK, InChI=1S/ClH.K/h1H;/q;+1/p-1
Compound 3: water, H2O, InChI=1S/H2O/h1H2
Compound 4: potassium bromide, BrK, InChI=1S/BrH.K/h1H;/q;+1/p-1
Compound 5: potassium iodide, IK, InChI=1S/HI.K/h1H;/q;+1/p-1

System: glycerol + potassium chloride + water; phases: Liquid
Fixed: Pressure, kPa = 101
Property: Molar conductivity, S*m2/mol (Liquid); method: Systonic-306 conductivity bridge using a dip-type cell
Solvent: Mole fraction of glycerol	Amount concentration (molarity), mol/dm3 of potassium chloride	Temperature, K	Molar conductivity, S*m2/mol	uncertainty
0.021256	0.0162	318	0.013824	3e-06
0.021256	0.01625	308	0.011631	2e-06
0.021256	0.0163	298	0.009693	2e-06
0.021256	0.0252	318	0.013526	3e-06
0.021256	0.02528	308	0.01126	2e-06
0.021256	0.02536	298	0.009388	2e-06
0.021256	0.03421	318	0.013254	3e-06
0.021256	0.0343	308	0.011006	2e-06
0.021256	0.03441	298	0.009158	2e-06
0.021256	0.04321	318	0.013054	3e-06
0.021256	0.04333	308	0.010788	2e-06
0.021256	0.04347	298	0.008956	2e-06
0.021256	0.06121	318	0.012687	3e-06
0.021256	0.06138	308	0.010398	2e-06
0.021256	0.06158	298	0.008576	2e-06
0.021256	0.07019	318	0.012536	3e-06
0.021256	0.07041	308	0.010244	2e-06
0.021256	0.07063	298	0.008414	2e-06
0.021256	0.08547	318	0.012306	3e-06
0.021256	0.08577	308	0.010062	2e-06
0.021256	0.08603	298	0.008187	2e-06
0.046589	0.018392	318	0.011485	2e-06
0.046589	0.01845	308	0.009188	2e-06
0.046589	0.01851	298	0.007509	2e-06
0.046589	0.025744	318	0.011242	2e-06
0.046589	0.025808	308	0.008968	2e-06
0.046589	0.02591	298	0.007276	2e-06
0.046589	0.036768	318	0.010935	2e-06
0.046589	0.03689	308	0.008654	2e-06
0.046589	0.03701	298	0.006998	2e-06
0.046589	0.0478	318	0.010674	2e-06
0.046589	0.04796	308	0.008406	2e-06
0.046589	0.04812	298	0.006781	1e-06
0.046589	0.058851	318	0.010421	2e-06
0.046589	0.05901	308	0.008214	2e-06
0.046589	0.05922	298	0.006597	1e-06
0.046589	0.066172	318	0.01026	2e-06
0.046589	0.06637	308	0.008111	2e-06
0.046589	0.06662	298	0.006489	1e-06
0.046589	0.073553	318	0.010094	2e-06
0.046589	0.07378	308	0.007999	2e-06
0.046589	0.07403	298	0.006377	1e-06
0.07729	0.017041	318	0.008321	2e-06
0.07729	0.017098	308	0.006845	1e-06
0.07729	0.017161	298	0.005302	1e-06
0.07729	0.023855	318	0.008114	2e-06
0.07729	0.02393	308	0.006659	1e-06
0.07729	0.024025	298	0.005144	1e-06
0.07729	0.034087	318	0.007858	2e-06
0.07729	0.03419	308	0.006421	1e-06
0.07729	0.034321	298	0.004968	1e-06
0.07729	0.044396	318	0.00766	2e-06
0.07729	0.04445	308	0.006218	1e-06
0.07729	0.044617	298	0.004801	1e-06
0.07729	0.054592	318	0.00747	2e-06
0.07729	0.054698	308	0.006064	1e-06
0.07729	0.054914	298	0.004658	1e-06
0.07729	0.061351	318	0.00736	2e-06
0.07729	0.061529	308	0.00596	1e-06
0.07729	0.061778	298	0.004536	1e-06
0.07729	0.068166	318	0.007204	2e-06
0.07729	0.068382	308	0.005859	1e-06
0.07729	0.068642	298	0.004458	1e-06

System: glycerol + potassium chloride + water; phases: Liquid
Fixed: Pressure, kPa = 101
Property: Mass density, kg/m3 (Liquid); method: Pycnometric method
Solvent: Mole fraction of glycerol	Amount concentration (molarity), mol/dm3 of potassium chloride	Temperature, K	Mass density, kg/m3	uncertainty
0.021256	0.0162	318	1014.61	2.03
0.021256	0.01625	308	1017.62	2.03
0.021256	0.0163	298	1020.89	2.02
0.021256	0.0252	318	1014.91	2.03
0.021256	0.02528	308	1018	2.03
0.021256	0.02536	298	1021.23	2.02
0.021256	0.03421	318	1015.31	2.03
0.021256	0.0343	308	1018.36	2.03
0.021256	0.03441	298	1021.58	2.02
0.021256	0.04321	318	1015.61	2.03
0.021256	0.04333	308	1018.75	2.03
0.021256	0.04347	298	1021.94	2.02
0.021256	0.06121	318	1016.41	2.03
0.021256	0.06138	308	1019.55	2.03
0.021256	0.06158	298	1022.62	2.02
0.021256	0.07019	318	1016.68	2.03
0.021256	0.07041	308	1019.94	2.03
0.021256	0.07063	298	1023.05	2.02
0.021256	0.08547	318	1017.3	2.03
0.021256	0.08577	308	1020.8	2.03
0.021256	0.08603	298	1023.76	2.02
0.046589	0.018392	318	1037.19	2.04
0.046589	0.01845	308	1040.46	2.04
0.046589	0.01851	298	1043.85	2.03
0.046589	0.025744	318	1037.5	2.03
0.046589	0.025808	308	1040.8	2.03
0.046589	0.02591	298	1044.2	2.03
0.046589	0.036768	318	1037.95	2.03
0.046589	0.03689	308	1041.26	2.03
0.046589	0.03701	298	1044.79	2.03
0.046589	0.0478	318	1038.42	2.03
0.046589	0.04796	308	1041.71	2.03
0.046589	0.04812	298	1045.28	2.03
0.046589	0.058851	318	1038.93	2.03
0.046589	0.05901	308	1042.19	2.03
0.046589	0.05922	298	1045.88	2.02
0.046589	0.066172	318	1039.34	2.03
0.046589	0.06637	308	1042.53	2.03
0.046589	0.06662	298	1046.37	2.02
0.046589	0.073553	318	1039.64	2.03
0.046589	0.07378	308	1042.93	2.04
0.046589	0.07403	298	1046.76	2.03
0.07729	0.017041	318	1060.75	2.03
0.07729	0.017098	308	1064.31	2.03
0.07729	0.017161	298	1068.22	2.03
0.07729	0.023855	318	1061.04	2.03
0.07729	0.02393	308	1064.56	2.03
0.07729	0.024025	298	1068.55	2.03
0.07729	0.034087	318	1061.56	2.03
0.07729	0.03419	308	1064.94	2.03
0.07729	0.034321	298	1069.02	2.03
0.07729	0.044396	318	1062.03	2.03
0.07729	0.04445	308	1065.38	2.03
0.07729	0.044617	298	1069.4	2.03
0.07729	0.054592	318	1062.48	2.03
0.07729	0.054698	308	1065.76	2.03
0.07729	0.054914	298	1069.97	2.03
0.07729	0.061351	318	1062.78	2.03
0.07729	0.061529	308	1066.04	2.03
0.07729	0.061778	298	1070.19	2.03
0.07729	0.068166	318	1063.06	2.03
0.07729	0.068382	308	1066.44	2.03
0.07729	0.068642	298	1070.5	2.03

System: glycerol + water + potassium bromide; phases: Liquid
Fixed: Pressure, kPa = 101
Property: Molar conductivity, S*m2/mol (Liquid); method: Systonic-306 conductivity bridge using a dip-type cell
Solvent: Mole fraction of glycerol	Amount concentration (molarity), mol/dm3 of potassium bromide	Temperature, K	Molar conductivity, S*m2/mol	uncertainty
0.021256	0.02313	318	0.014308	3e-06
0.021256	0.02321	308	0.012411	3e-06
0.021256	0.02329	298	0.010258	2e-06
0.021256	0.03471	318	0.014001	3e-06
0.021256	0.03482	308	0.012101	2e-06
0.021256	0.03493	298	0.009948	2e-06
0.021256	0.04628	318	0.013744	3e-06
0.021256	0.04643	308	0.011851	2e-06
0.021256	0.04658	298	0.009721	2e-06
0.021256	0.05786	318	0.013506	3e-06
0.021256	0.05804	308	0.01164	2e-06
0.021256	0.05822	298	0.009502	2e-06
0.021256	0.06558	318	0.01338	3e-06
0.021256	0.06578	308	0.01151	2e-06
0.021256	0.06599	298	0.009368	2e-06
0.021256	0.06944	318	0.013301	3e-06
0.021256	0.06965	308	0.011436	2e-06
0.021256	0.06987	298	0.009298	2e-06
0.021256	0.07712	318	0.013167	3e-06
0.021256	0.0774	308	0.011302	2e-06
0.021256	0.07763	298	0.009158	2e-06
0.046589	0.01825	318	0.012371	3e-06
0.046589	0.018305	308	0.009784	2e-06
0.046589	0.018366	298	0.008868	2e-06
0.046589	0.02555	318	0.01213	2e-06
0.046589	0.02563	308	0.009564	2e-06
0.046589	0.025712	298	0.008475	2e-06
0.046589	0.03649	318	0.01183	2e-06
0.046589	0.036609	308	0.009294	2e-06
0.046589	0.036731	298	0.008224	2e-06
0.046589	0.04744	318	0.011564	2e-06
0.046589	0.047596	308	0.009089	2e-06
0.046589	0.04775	298	0.008012	2e-06
0.046589	0.05842	318	0.011368	2e-06
0.046589	0.058604	308	0.008901	2e-06
0.046589	0.05877	298	0.007821	2e-06
0.046589	0.06568	318	0.011232	2e-06
0.046589	0.065894	308	0.008802	2e-06
0.046589	0.06612	298	0.007683	2e-06
0.046589	0.07299	318	0.011125	2e-06
0.046589	0.073227	308	0.008714	2e-06
0.046589	0.073462	298	0.007585	2e-06
0.07729	0.01679	318	0.009702	2e-06
0.07729	0.016823	308	0.008067	2e-06
0.07729	0.016884	298	0.006425	1e-06
0.07729	0.023782	318	0.0095	2e-06
0.07729	0.02384	308	0.007858	2e-06
0.07729	0.023919	298	0.006264	1e-06
0.07729	0.033563	318	0.009284	2e-06
0.07729	0.03365	308	0.007655	2e-06
0.07729	0.033768	298	0.006061	1e-06
0.07729	0.043316	318	0.009076	2e-06
0.07729	0.043444	308	0.007465	2e-06
0.07729	0.043617	298	0.005901	1e-06
0.07729	0.054499	318	0.008862	2e-06
0.07729	0.05468	308	0.00729	2e-06
0.07729	0.054873	298	0.005741	1e-06
0.07729	0.056833	298	0.005584	1e-06
0.07729	0.061476	318	0.008745	2e-06
0.07729	0.06171	308	0.007166	2e-06
0.07729	0.061908	298	0.005654	1e-06
0.07729	0.06637	318	0.008654	2e-06
0.07729	0.06662	308	0.007084	2e-06

System: glycerol + water + potassium bromide; phases: Liquid
Fixed: Pressure, kPa = 101
Property: Mass density, kg/m3 (Liquid); method: Pycnometric method
Solvent: Mole fraction of glycerol	Amount concentration (molarity), mol/dm3 of potassium bromide	Temperature, K	Mass density, kg/m3	uncertainty
0.021256	0.02313	318	1015.34	2.03
0.021256	0.02321	308	1018.49	2.03
0.021256	0.02329	298	1021.82	2.03
0.021256	0.03471	318	1016.4	2.03
0.021256	0.03482	308	1019.54	2.03
0.021256	0.03493	298	1022.84	2.03
0.021256	0.04628	318	1017.3	2.03
0.021256	0.04643	308	1020.53	2.03
0.021256	0.04658	298	1023.82	2.03
0.021256	0.05786	318	1018.3	2.03
0.021256	0.05804	308	1021.43	2.03
0.021256	0.05822	298	1024.6	2.02
0.021256	0.06558	318	1018.94	2.03
0.021256	0.06578	308	1022.03	2.03
0.021256	0.06599	298	1025.25	2.03
0.021256	0.06944	318	1019.13	2.03
0.021256	0.06965	308	1022.31	2.03
0.021256	0.06987	298	1025.44	2.03
0.021256	0.07712	318	1019.7	2.03
0.021256	0.0774	308	1023.31	2.03
0.021256	0.07763	298	1026.44	2.03
0.046589	0.01825	318	1038.03	2.03
0.046589	0.018305	308	1041.16	2.03
0.046589	0.018366	298	1044.64	2.03
0.046589	0.02555	318	1038.51	2.03
0.046589	0.02563	308	1041.73	2.03
0.046589	0.025712	298	1045.22	2.03
0.046589	0.03649	318	1039.23	2.03
0.046589	0.036609	308	1042.53	2.03
0.046589	0.036731	298	1046.02	2.03
0.046589	0.04744	318	1040.15	2.03
0.046589	0.047596	308	1043.42	2.03
0.046589	0.04775	298	1046.79	2.03
0.046589	0.05842	318	1040.88	2.03
0.046589	0.058604	308	1044.12	2.03
0.046589	0.05877	298	1047.66	2.03
0.046589	0.06568	318	1041.3	2.03
0.046589	0.065894	308	1044.74	2.03
0.046589	0.06612	298	1048.32	2.03
0.046589	0.07299	318	1042.41	2.04
0.046589	0.073227	308	1045.68	2.03
0.046589	0.073462	298	1049.04	2.03
0.07729	0.01679	318	1062.7	2.03
0.07729	0.016823	308	1064.8	3.52
0.07729	0.016884	298	1068.51	2.03
0.07729	0.023782	318	1063.1	2.03
0.07729	0.02384	308	1085.5	2.03
0.07729	0.023919	298	1069.16	2.03
0.07729	0.033563	318	1063.4	2.03
0.07729	0.03365	308	1066.1	2.24
0.07729	0.033768	298	1069.9	2.03
0.07729	0.043316	318	1063.8	2.03
0.07729	0.043444	308	1067	2.03
0.07729	0.043617	298	1070.69	2.03
0.07729	0.054499	318	1064.3	2.03
0.07729	0.05468	308	1067.8	2.03
0.07729	0.054873	298	1071.59	2.07
0.07729	0.056833	298	1072.39	2.03
0.07729	0.061476	318	1064.6	2.03
0.07729	0.06171	308	1068.6	2.03
0.07729	0.061908	298	1072.05	2.03
0.07729	0.06637	318	1064.9	2.03
0.07729	0.06662	308	1069	2.03

System: glycerol + potassium iodide + water; phases: Liquid
Fixed: Pressure, kPa = 101
Property: Molar conductivity, S*m2/mol (Liquid); method: Systonic-306 conductivity bridge using a dip-type cell
Solvent: Mole fraction of glycerol	Amount concentration (molarity), mol/dm3 of potassium iodide	Temperature, K	Molar conductivity, S*m2/mol	uncertainty
0.021256	0.01961	318	0.014722	3e-06
0.021256	0.01972	308	0.012668	3e-06
0.021256	0.01978	298	0.010823	2e-06
0.021256	0.0275	318	0.014506	3e-06
0.021256	0.0276	308	0.012441	3e-06
0.021256	0.027696	298	0.010598	2e-06
0.021256	0.03933	318	0.014222	3e-06
0.021256	0.03944	308	0.012187	2e-06
0.021256	0.039565	298	0.010326	2e-06
0.021256	0.05119	318	0.013988	3e-06
0.021256	0.05128	308	0.011954	2e-06
0.021256	0.051435	298	0.010106	2e-06
0.021256	0.0629	318	0.013754	3e-06
0.021256	0.06312	308	0.01176	2e-06
0.021256	0.063304	298	0.009916	2e-06
0.021256	0.0747	318	0.013605	3e-06
0.021256	0.07494	308	0.011562	2e-06
0.021256	0.07517	298	0.009736	2e-06
0.021256	0.08256	318	0.013456	3e-06
0.021256	0.08282	308	0.011426	2e-06
0.021256	0.083087	298	0.009601	2e-06
0.046589	0.016922	318	0.013085	3e-06
0.046589	0.016975	308	0.010887	2e-06
0.046589	0.017036	298	0.009196	2e-06
0.046589	0.023683	318	0.012865	3e-06
0.046589	0.023762	308	0.010689	2e-06
0.046589	0.02385	298	0.008989	2e-06
0.046589	0.03385	318	0.012587	3e-06
0.046589	0.033954	308	0.010434	2e-06
0.046589	0.034071	298	0.008754	2e-06
0.046589	0.043985	318	0.012346	3e-06
0.046589	0.044126	308	0.010236	2e-06
0.046589	0.044293	298	0.008547	2e-06
0.046589	0.05415	318	0.012135	2e-06
0.046589	0.054323	308	0.010054	2e-06
0.046589	0.054514	298	0.008388	2e-06
0.046589	0.06429	318	0.011958	2e-06
0.046589	0.06447	308	0.009887	2e-06
0.046589	0.071119	318	0.011854	2e-06
0.046589	0.07134	308	0.00978	2e-06
0.046589	0.07155	298	0.008106	2e-06
0.07729	0.01713	318	0.010156	2e-06
0.07729	0.017243	298	0.007105	2e-06
0.07729	0.02398	318	0.009964	2e-06
0.07729	0.02406	308	0.008541	2e-06
0.07729	0.02414	298	0.006944	1e-06
0.07729	0.03424	318	0.009721	2e-06
0.07729	0.03436	308	0.008312	2e-06
0.07729	0.034485	298	0.006738	1e-06
0.07729	0.04452	318	0.009531	2e-06
0.07729	0.0447	308	0.008125	2e-06
0.07729	0.044831	298	0.006574	1e-06
0.07729	0.05484	318	0.009347	2e-06
0.07729	0.05505	308	0.007964	2e-06
0.07729	0.055176	298	0.006423	1e-06
0.07729	0.06164	318	0.009232	2e-06
0.07729	0.061914	308	0.007862	2e-06
0.07729	0.062073	298	0.006326	1e-06
0.07729	0.06852	318	0.009112	2e-06
0.07729	0.06872	308	0.007754	2e-06
0.07729	0.06897	298	0.006248	1e-06

System: glycerol + potassium iodide + water; phases: Liquid
Fixed: Pressure, kPa = 101
Property: Mass density, kg/m3 (Liquid); method: Pycnometric method
Solvent: Mole fraction of glycerol	Amount concentration (molarity), mol/dm3 of potassium iodide	Temperature, K	Mass density, kg/m3	uncertainty
0.021256	0.01961	318	1013.58	2.04
0.021256	0.01972	308	1019.32	2.04
0.021256	0.01978	298	1022.64	2.03
0.021256	0.0275	318	1015.03	2.04
0.021256	0.0276	308	1020.17	2.03
0.021256	0.027696	298	1023.54	2.03
0.021256	0.03933	318	1017.03	2.04
0.021256	0.03944	308	1021.7	2.03
0.021256	0.039565	298	1024.92	2.03
0.021256	0.05119	318	1019.03	2.03
0.021256	0.05128	308	1023.12	2.03
0.021256	0.051435	298	1026.18	2.03
0.021256	0.0629	318	1020.83	2.03
0.021256	0.06312	308	1024.5	2.03
0.021256	0.063304	298	1027.52	2.03
0.021256	0.0747	318	1022.58	2.03
0.021256	0.07494	308	1025.79	2.03
0.021256	0.07517	298	1029	2.03
0.021256	0.08256	318	1023.66	2.03
0.021256	0.08282	308	1026.86	2.03
0.021256	0.083087	298	1030.19	2.03
0.046589	0.016922	318	1038.46	2.06
0.046589	0.016975	308	1041.67	2.03
0.046589	0.017036	298	1045.4	2.04
0.046589	0.023683	318	1039.33	2.03
0.046589	0.023762	308	1042.81	2.03
0.046589	0.02385	298	1046.31	2.03
0.046589	0.03385	318	1040.5	2.03
0.046589	0.033954	308	1043.83	2.03
0.046589	0.034071	298	1047.44	2.03
0.046589	0.043985	318	1041.72	2.04
0.046589	0.044126	308	1045.05	2.03
0.046589	0.044293	298	1048.76	2.03
0.046589	0.05415	318	1042.94	2.03
0.046589	0.054323	308	1046.27	2.03
0.046589	0.054514	298	1049.95	2.03
0.046589	0.06429	318	1044.05	2.04
0.046589	0.06447	308	1046.97	2.03
0.046589	0.064736	298	1051.28	2.03
0.046589	0.071119	318	1045.14	2.03
0.046589	0.07134	308	1048.4	2.03
0.046589	0.07155	298	1052.03	2.03
0.07729	0.01713	318	1062.05	2.04
0.07729	0.017243	298	1069.32	2.03
0.07729	0.02398	318	1063.29	2.03
0.07729	0.02406	308	1066.59	2.03
0.07729	0.02414	298	1070.13	2.03
0.07729	0.03424	318	1063.8	2.03
0.07729	0.03436	308	1067.48	2.03
0.07729	0.034485	298	1071.25	2.03
0.07729	0.04452	318	1064.74	2.04
0.07729	0.0447	308	1069.17	2.04
0.07729	0.044831	298	1072.26	2.03
0.07729	0.05484	318	1066.67	2.04
0.07729	0.05505	308	1070.86	2.03
0.07729	0.055176	298	1073.26	2.03
0.07729	0.06164	318	1066.74	2.04
0.07729	0.061914	308	1071.48	2.03
0.07729	0.062073	298	1074.24	2.03
0.07729	0.06852	318	1068.44	2.05
0.07729	0.06872	308	1071.61	2.03
0.07729	0.06897	298	1075.49	2.03
