Measured thermophysical data. Application of the Extended Langmuir Model for the Determination of Lyophobicity of 1-Propanol in Acetonitrile
Source: Int. J. Thermophys., 2009, 10.1007/s10765-009-0581-7
Compound 1: acetonitrile, C2H3N, InChI=1S/C2H3N/c1-2-3/h1H3
Compound 2: propan-1-ol, C3H8O, InChI=1S/C3H8O/c1-2-3-4/h4H,2-3H2,1H3

System: acetonitrile; phases: Liquid, Air at 1 atmosphere
Property: Surface tension liquid-gas, N/m (Liquid); method: Ring tensiometer
Temperature, K	Surface tension liquid-gas, N/m	uncertainty
278.15	0.0305	0.0005
283.15	0.0301	0.0005
288.15	0.0297	0.0005
293.15	0.0293	0.0005
298.15	0.0289	0.0005
303.15	0.0285	0.0004
308.15	0.0281	0.0004
313.15	0.0277	0.0004

System: acetonitrile; phases: Liquid
Fixed: Pressure, kPa = 101
Property: Mass density, kg/m3 (Liquid); method: VIBTUB:UFactor:16
Temperature, K	Mass density, kg/m3	uncertainty
278.15	793.3	1.91
283.15	788.8	1.94
288.15	784.3	1.97
293.15	778.3	2
298.15	776.75	2.01
303.15	771.5	2.04
308.15	766.3	2.07
313.15	761	2.11

System: propan-1-ol; phases: Liquid, Air at 1 atmosphere
Property: Surface tension liquid-gas, N/m (Liquid); method: Ring tensiometer
Temperature, K	Surface tension liquid-gas, N/m	uncertainty
278.15	0.0249	0.0004
283.15	0.0245	0.0004
288.15	0.0241	0.0004
293.15	0.0237	0.0004
298.15	0.0233	0.0004
303.15	0.0229	0.0004
308.15	0.0225	0.0004
313.15	0.0222	0.0004

System: propan-1-ol; phases: Liquid
Fixed: Pressure, kPa = 101
Property: Mass density, kg/m3 (Liquid); method: VIBTUB:UFactor:16
Temperature, K	Mass density, kg/m3	uncertainty
278.15	816.3	1.78
283.15	812.4	1.8
288.15	808.6	1.82
293.15	803.61	1.85
298.15	799.58	1.88
303.15	795.48	1.9
308.15	792.8	1.92
313.15	787.02	1.95

System: propan-1-ol + acetonitrile; phases: Liquid, Air at 1 atmosphere
Property: Surface tension liquid-gas, N/m (Liquid); method: Ring tensiometer
Temperature, K	Mole fraction of acetonitrile	Surface tension liquid-gas, N/m	uncertainty
278.15	0	0.0249	0.0004
278.15	0.1255	0.0252	0.0004
278.15	0.2452	0.0254	0.0004
278.15	0.3466	0.0258	0.0004
278.15	0.4995	0.0265	0.0004
278.15	0.6449	0.0274	0.0004
278.15	0.7492	0.0281	0.0004
278.15	0.8645	0.0291	0.0005
278.15	0.9101	0.0295	0.0005
278.15	1	0.0305	0.0005
283.15	0	0.0245	0.0004
283.15	0.1255	0.0248	0.0004
283.15	0.2452	0.025	0.0004
283.15	0.3466	0.0254	0.0004
283.15	0.4995	0.0261	0.0004
283.15	0.6449	0.027	0.0004
283.15	0.7492	0.0277	0.0004
283.15	0.8645	0.0287	0.0005
283.15	0.9101	0.0291	0.0005
283.15	1	0.0301	0.0005
288.15	0	0.0241	0.0004
288.15	0.1255	0.0244	0.0004
288.15	0.2452	0.0247	0.0004
288.15	0.3466	0.025	0.0004
288.15	0.4995	0.0257	0.0004
288.15	0.6449	0.0266	0.0004
288.15	0.7492	0.0273	0.0004
288.15	0.8645	0.0283	0.0004
288.15	0.9101	0.0287	0.0005
288.15	1	0.0297	0.0005
293.15	0	0.0237	0.0004
293.15	0.1255	0.024	0.0004
293.15	0.2452	0.0243	0.0004
293.15	0.3466	0.0246	0.0004
293.15	0.4995	0.0253	0.0004
293.15	0.6449	0.0262	0.0004
293.15	0.7492	0.0269	0.0004
293.15	0.8645	0.0279	0.0004
293.15	0.9101	0.0283	0.0004
293.15	1	0.0293	0.0005
298.15	0	0.0233	0.0004
298.15	0.1255	0.0236	0.0004
298.15	0.2452	0.0239	0.0004
298.15	0.3466	0.0242	0.0004
298.15	0.4995	0.0249	0.0004
298.15	0.6449	0.0258	0.0004
298.15	0.7492	0.0266	0.0004
298.15	0.8645	0.0275	0.0004
298.15	0.9101	0.0279	0.0004
298.15	1	0.0289	0.0005
303.15	0	0.0229	0.0004
303.15	0.1255	0.0232	0.0004
303.15	0.2452	0.0235	0.0004
303.15	0.3466	0.0238	0.0004
303.15	0.4995	0.0245	0.0004
303.15	0.6449	0.0254	0.0004
303.15	0.7492	0.0262	0.0004
303.15	0.8645	0.0271	0.0004
303.15	0.9101	0.0275	0.0004
303.15	1	0.0285	0.0004
308.15	0	0.0225	0.0004
308.15	0.1255	0.0228	0.0004
308.15	0.2452	0.0231	0.0004
308.15	0.3466	0.0234	0.0004
308.15	0.4995	0.0242	0.0004
308.15	0.6449	0.025	0.0004
308.15	0.7492	0.0258	0.0004
308.15	0.8645	0.0267	0.0004
308.15	0.9101	0.0271	0.0004
308.15	1	0.0281	0.0004
313.15	0	0.0222	0.0004
313.15	0.1255	0.0224	0.0004
313.15	0.2452	0.0227	0.0004
313.15	0.3466	0.023	0.0004
313.15	0.4995	0.0238	0.0004
313.15	0.6449	0.0246	0.0004
313.15	0.7492	0.0254	0.0004
313.15	0.8645	0.0263	0.0004
313.15	0.9101	0.0268	0.0004
313.15	1	0.0277	0.0004

System: propan-1-ol + acetonitrile; phases: Liquid
Fixed: Pressure, kPa = 101
Property: Mass density, kg/m3 (Liquid); method: VIBTUB:UFactor:16
Temperature, K	Mole fraction of acetonitrile	Mass density, kg/m3	uncertainty
278.15	0	816.3	1.78
278.15	0.1255	813.41	1.8
278.15	0.2452	810.66	1.81
278.15	0.3466	808.33	1.83
278.15	0.4995	804.81	1.85
278.15	0.6449	801.47	1.87
278.15	0.7492	799.07	1.88
278.15	0.8645	796.42	1.9
278.15	0.9101	795.37	1.9
278.15	1	793.3	1.91
283.15	0	812.4	1.8
283.15	0.1255	809.44	1.82
283.15	0.2452	806.61	1.84
283.15	0.3466	804.22	1.85
283.15	0.4995	800.61	1.87
283.15	0.6449	797.18	1.89
283.15	0.7492	794.72	1.91
283.15	0.8645	792	1.92
283.15	0.9101	790.92	1.93
283.15	1	788.8	1.94
288.15	0	808.6	1.82
288.15	0.1255	805.55	1.84
288.15	0.2452	802.64	1.86
288.15	0.3466	800.18	1.87
288.15	0.4995	796.46	1.9
288.15	0.6449	792.93	1.92
288.15	0.7492	790.39	1.93
288.15	0.8645	787.59	1.95
288.15	0.9101	786.48	1.96
288.15	1	784.3	1.97
293.15	0	803.61	1.85
293.15	0.1255	799.41	1.88
293.15	0.2452	796.56	1.9
293.15	0.3466	794.15	1.91
293.15	0.4995	790.51	1.93
293.15	0.6449	787.05	1.95
293.15	0.7492	784.57	1.97
293.15	0.8645	781.82	1.98
293.15	0.9101	780.74	1.99
293.15	1	778.3	2
298.15	0	799.58	1.88
298.15	0.1255	796.74	1.89
298.15	0.2452	794.01	1.91
298.15	0.3466	791.7	1.92
298.15	0.4995	788.21	1.94
298.15	0.6449	784.9	1.96
298.15	0.7492	782.52	1.98
298.15	0.8645	779.89	1.99
298.15	0.9101	778.85	2
298.15	1	776.75	2.01
303.15	0	795.48	1.9
303.15	0.1255	792.49	1.92
303.15	0.2452	789.62	1.94
303.15	0.3466	787.18	1.95
303.15	0.4995	783.51	1.97
303.15	0.6449	780.02	1.99
303.15	0.7492	777.52	2.01
303.15	0.8645	774.75	2.02
303.15	0.9101	773.66	2.03
303.15	1	771.5	2.04
308.15	0	792.8	1.92
308.15	0.1255	789.47	1.94
308.15	0.2452	786.3	1.96
308.15	0.3466	783.62	1.97
308.15	0.4995	779.56	2
308.15	0.6449	775.71	2.02
308.15	0.7492	772.95	2.04
308.15	0.8645	769.89	2.05
308.15	0.9101	768.68	2.06
308.15	1	766.3	2.07
313.15	0	787.02	1.95
313.15	0.1255	783.74	1.97
313.15	0.2452	780.62	1.99
313.15	0.3466	777.99	2.01
313.15	0.4995	774.01	2.03
313.15	0.6449	770.23	2.05
313.15	0.7492	767.52	2.07
313.15	0.8645	764.52	2.09
313.15	0.9101	763.34	2.09
313.15	1	761	2.11
