Measured thermophysical data. Measurements of Hydrogen Thermal Conductivity at High Pressure and High Temperature
Source: Int. J. Thermophys., 2011, 10.1007/s10765-011-1052-5
Compound 1: hydrogen, H2, InChI=1S/H2/h1H
Compound 2: helium, He, InChI=1S/He

System: hydrogen; phases: Fluid (supercritical or subcritical phases)
Property: Thermal conductivity, W/m/K (Fluid (supercritical or subcritical phases)); method: Hot wire method
Pressure, kPa	Temperature, K	Thermal conductivity, W/m/K	uncertainty
261	323.2	0.1971	0.0044
261	323.2	0.197	0.0044
266	323.2	0.1971	0.0044
267	323.2	0.1973	0.0044
266	323.2	0.1971	0.0044
5188	323.2	0.2031	0.0045
5190	323.2	0.2031	0.0045
5193	323.19	0.2032	0.0045
5191	323.19	0.2032	0.0045
5186	323.2	0.2029	0.0045
10100	323.19	0.2065	0.0046
10095	323.2	0.2065	0.0046
10094	323.19	0.2067	0.0046
10087	323.2	0.2067	0.0046
10084	323.2	0.2067	0.0046
19987	323.2	0.2147	0.0048
19998	323.2	0.2146	0.0048
20000	323.2	0.2142	0.0048
19989	323.2	0.2142	0.0048
19980	323.21	0.2147	0.0048
40020	323.2	0.2313	0.0052
40011	323.2	0.2304	0.0051
39993	323.2	0.2306	0.0051
39984	323.2	0.2311	0.0051
40006	323.2	0.2312	0.0051
59985	323.2	0.2488	0.0055
59986	323.2	0.2482	0.0055
59968	323.2	0.2483	0.0055
59948	323.2	0.2488	0.0055
59935	323.21	0.2488	0.0055
80034	323.2	0.2657	0.0059
80012	323.2	0.2648	0.0059
79984	323.2	0.2654	0.0059
79963	323.2	0.2659	0.0059
80001	323.2	0.2659	0.0059
97745	323.2	0.2813	0.0063
97707	323.2	0.2804	0.0062
97716	323.2	0.282	0.0063
97753	323.2	0.2816	0.0063
97762	323.2	0.2814	0.0063
599	373.23	0.2224	0.005
599	373.22	0.2225	0.005
598	373.22	0.2223	0.005
598	373.22	0.2224	0.005
5171	373.23	0.2262	0.005
5170	373.22	0.2262	0.005
5170	373.22	0.226	0.005
5170	373.22	0.2261	0.005
10219	373.23	0.2296	0.0051
10219	373.23	0.2295	0.0051
10219	373.23	0.2296	0.0051
10219	373.23	0.2298	0.0051
30119	373.23	0.2438	0.0054
30120	373.23	0.2437	0.0054
30120	373.23	0.2433	0.0054
30122	373.23	0.2432	0.0054
50144	373.23	0.2589	0.0058
50144	373.23	0.2588	0.0058
50144	373.23	0.2589	0.0058
70084	373.22	0.2757	0.0061
70084	373.22	0.2758	0.0061
70086	373.22	0.2758	0.0061
98197	373.22	0.2988	0.0066
98193	373.23	0.2983	0.0066
98190	373.23	0.2987	0.0066
98187	373.22	0.2983	0.0066
400	423.27	0.2421	0.0054
402	423.27	0.2431	0.0054
403	423.26	0.2426	0.0054
404	423.26	0.2418	0.0054
5113	423.26	0.2477	0.0055
5114	423.26	0.2476	0.0055
5114	423.25	0.2475	0.0055
10104	423.26	0.2499	0.0056
10105	423.25	0.2494	0.0056
10105	423.25	0.2502	0.0056
30087	423.25	0.262	0.0058
30087	423.25	0.2619	0.0058
30087	423.25	0.2615	0.0058
50100	423.26	0.2771	0.0062
50100	423.26	0.2762	0.0061
50102	423.25	0.2764	0.0062
70147	423.25	0.2939	0.0065
70150	423.25	0.2927	0.0065
70155	423.25	0.2923	0.0065
96975	423.25	0.314	0.007
96978	423.25	0.3137	0.007
96980	423.25	0.3142	0.007
365	573.28	0.2934	0.0065
367	573.28	0.2929	0.0065
369	573.28	0.2931	0.0065
5202	573.27	0.3043	0.0068
5202	573.27	0.3057	0.0068
5202	573.27	0.3047	0.0068
10155	573.27	0.3066	0.0068
10155	573.27	0.3072	0.0068
10156	573.27	0.3066	0.0068
30167	573.27	0.3171	0.0071
30167	573.27	0.3173	0.0071
30167	573.27	0.3175	0.0071
50208	573.26	0.3253	0.0072
50204	573.27	0.3274	0.0073
50202	573.26	0.3283	0.0073
70114	573.27	0.3387	0.0075
70106	573.27	0.3381	0.0075
70099	573.27	0.3376	0.0075
97001	573.26	0.3548	0.0079
96990	573.26	0.3549	0.0079
96979	573.26	0.356	0.0079
407	473.28	0.2609	0.0058
408	473.29	0.2613	0.0058
408	473.28	0.261	0.0058
409	473.28	0.2611	0.0058
5166	473.28	0.2673	0.0059
5167	473.28	0.267	0.0059
5167	473.28	0.2671	0.0059
10065	473.27	0.2681	0.006
10065	473.27	0.2687	0.006
10065	473.28	0.2691	0.006
30123	473.27	0.2799	0.0062
30124	473.27	0.28	0.0062
30124	473.27	0.2803	0.0062
50176	473.28	0.294	0.0065
50178	473.28	0.2937	0.0065
50179	473.28	0.292	0.0065
70155	473.27	0.3079	0.0068
70156	473.27	0.3088	0.0069
70160	473.27	0.3069	0.0068
97460	473.27	0.3282	0.0073
97459	473.27	0.3262	0.0073
97457	473.27	0.3277	0.0073
304	672.89	0.3296	0.0073
304	672.89	0.329	0.0073
305	672.89	0.329	0.0073
306	672.89	0.3287	0.0073
5147	672.88	0.343	0.0076
5143	672.88	0.3429	0.0076
5140	672.88	0.344	0.0076
5137	672.88	0.342	0.0076
10061	672.88	0.3445	0.0077
10060	672.88	0.3456	0.0077
10059	672.88	0.3459	0.0077
30074	672.87	0.3514	0.0078
30063	672.87	0.3522	0.0078
30056	672.87	0.3514	0.0078
50118	672.87	0.3625	0.0081
50107	672.88	0.3616	0.008
50096	672.87	0.36	0.008
70044	672.88	0.3699	0.0082
70030	672.88	0.3711	0.0083
70012	672.88	0.3693	0.0082
98109	672.87	0.3873	0.0086
98074	672.87	0.3853	0.0086
98041	672.87	0.3854	0.0086
4315	373.23	0.2265	0.005
4316	373.23	0.2258	0.005
4316	373.23	0.2256	0.005
10127	373.23	0.2291	0.0051
10126	373.24	0.2296	0.0051
10126	373.23	0.2289	0.0051
30053	373.23	0.2422	0.0054
30052	373.23	0.2428	0.0054
30052	373.23	0.2427	0.0054
49936	373.23	0.2599	0.0058
49936	373.23	0.2582	0.0057
49936	373.23	0.2587	0.0058
69998	373.23	0.2753	0.0061
69997	373.23	0.2756	0.0061
69998	373.23	0.2751	0.0061
97555	373.23	0.3001	0.0067
97558	373.23	0.2995	0.0067
97560	373.23	0.2989	0.0067
378	771.92	0.3679	0.0082
381	771.92	0.3675	0.0082
383	771.92	0.3671	0.0082
386	771.92	0.3678	0.0082
5144	771.91	0.3835	0.0085
5140	771.92	0.3835	0.0085
5136	771.92	0.3832	0.0085
10109	771.91	0.3825	0.0085
10100	771.91	0.3836	0.0085
10092	771.91	0.3825	0.0085
10086	771.91	0.3838	0.0085
30058	771.91	0.39	0.0087
30036	771.9	0.3906	0.0087
30014	771.91	0.3888	0.0086
29994	771.9	0.3905	0.0087
49932	771.9	0.3973	0.0088
49904	771.9	0.3973	0.0088
49879	771.91	0.3964	0.0088
70520	771.91	0.4053	0.0092
70484	771.9	0.4065	0.009
70444	771.9	0.4037	0.009
70405	771.9	0.408	0.0092
99205	771.9	0.4188	0.0093
99143	771.9	0.4168	0.0093
99008	771.9	0.417	0.0093
98954	771.9	0.4176	0.0093

System: helium; phases: Fluid (supercritical or subcritical phases)
Property: Thermal conductivity, W/m/K (Fluid (supercritical or subcritical phases)); method: Hot wire method
Pressure, kPa	Temperature, K	Thermal conductivity, W/m/K	uncertainty
5030	323.2	0.1674	0.0038
5030	323.2	0.1675	0.0038
5030	323.2	0.1677	0.0038
5030	323.19	0.1676	0.0038
10055	323.19	0.1696	0.0038
10055	323.19	0.1695	0.0038
10055	323.19	0.1695	0.0038
10055	323.19	0.1694	0.0038
29887	323.19	0.1783	0.004
29886	323.19	0.1782	0.004
29885	323.19	0.1784	0.004
29885	323.19	0.1786	0.004
50067	323.21	0.187	0.0042
50070	323.21	0.1872	0.0042
50072	323.21	0.1872	0.0042
50075	323.21	0.187	0.0042
70102	323.21	0.196	0.0044
70105	323.21	0.196	0.0044
70109	323.21	0.1961	0.0044
70112	323.21	0.1964	0.0044
98251	323.21	0.2089	0.0047
98254	323.21	0.2085	0.0047
98259	323.21	0.2085	0.0047
98263	323.21	0.2086	0.0047
5137	373.23	0.185	0.0042
5137	373.22	0.1853	0.0042
5137	373.23	0.1845	0.0041
10114	373.23	0.1866	0.0042
10114	373.23	0.1868	0.0042
10114	373.23	0.1866	0.0042
30214	373.22	0.1948	0.0044
30214	373.22	0.1945	0.0044
30213	373.22	0.1948	0.0044
49994	373.22	0.2033	0.0046
49992	373.22	0.2028	0.0045
49990	373.22	0.2028	0.0045
69937	373.23	0.214	0.0048
69936	373.23	0.2139	0.0048
69936	373.23	0.2138	0.0048
97514	373.23	0.2284	0.0051
97516	373.23	0.2277	0.0051
97527	373.23	0.2275	0.0051
5261	473.28	0.2173	0.0049
5261	473.27	0.2169	0.0049
5260	473.27	0.2166	0.0049
10173	473.27	0.2193	0.0049
10172	473.27	0.2187	0.0049
10172	473.27	0.2183	0.0049
30084	473.28	0.2252	0.005
30085	473.28	0.2251	0.005
30085	473.28	0.226	0.0051
50076	473.27	0.2321	0.0052
50078	473.27	0.2322	0.0052
50080	473.27	0.2317	0.0052
70131	473.27	0.2428	0.0054
70135	473.27	0.2422	0.0054
70138	473.27	0.2419	0.0054
99160	473.29	0.2472	0.0055
99148	473.27	0.2558	0.0057
99151	473.27	0.2549	0.0057
99156	473.27	0.2552	0.0057
5197	573.25	0.2478	0.0056
5199	573.25	0.2472	0.0055
5200	573.25	0.2477	0.0055
10292	573.25	0.2503	0.0056
10294	573.25	0.2496	0.0056
10295	573.25	0.2496	0.0056
30146	573.25	0.2552	0.0057
30146	573.24	0.2549	0.0057
30149	573.25	0.2558	0.0057
50095	573.25	0.2609	0.0058
50100	573.25	0.2599	0.0058
50100	573.24	0.2618	0.0059
70129	573.24	0.2675	0.006
70160	573.25	0.268	0.006
70165	573.25	0.2662	0.006
97066	573.24	0.2798	0.0063
97071	573.24	0.2805	0.0063
97072	573.24	0.2792	0.0063
5413	672.9	0.2765	0.0062
5416	672.9	0.277	0.0062
5417	672.89	0.2774	0.0062
10409	672.89	0.2788	0.0062
10412	672.89	0.279	0.0062
10414	672.89	0.2784	0.0062
30054	672.89	0.2843	0.0064
30064	672.88	0.2852	0.0064
30085	672.88	0.2823	0.0063
50178	672.89	0.2895	0.0065
50182	672.89	0.2888	0.0065
50184	672.88	0.2882	0.0065
70068	672.88	0.293	0.0066
70074	672.88	0.2949	0.0066
70081	672.88	0.2948	0.0066
98224	672.87	0.3057	0.0068
98231	672.87	0.3054	0.0068
98230	672.87	0.3055	0.0068
1059	771.94	0.2998	0.0067
1068	771.94	0.3028	0.0068
1071	771.94	0.3022	0.0068
1074	771.94	0.304	0.0068
3001	771.94	0.3012	0.0067
3003	771.94	0.3055	0.0068
3005	771.93	0.3046	0.0068
3008	771.93	0.3049	0.0068
5202	771.93	0.3079	0.0069
5204	771.92	0.3065	0.0069
10197	771.91	0.3094	0.0069
10199	771.91	0.3093	0.0069
30345	771.9	0.3126	0.007
30348	771.9	0.3102	0.0069
30350	771.9	0.313	0.007
50118	771.89	0.3162	0.0071
50125	771.89	0.3184	0.0071
50128	771.89	0.3182	0.0071
70299	771.89	0.3237	0.0072
70303	771.89	0.3173	0.0071
70305	771.89	0.3224	0.0072
99452	771.89	0.3302	0.0074
99460	771.89	0.3299	0.0074
99462	771.89	0.3321	0.0074
