Measured thermophysical data. Thermal Conductivity and Viscosity of Aqueous K2SO4 Solutions at Temperatures from 298 to 575K and at Pressures up to 30MPa
Source: Int. J. Thermophys., 2005, 10.1007/s10765-005-5567-5
Compound 1: potassium sulfate, K2O4S, InChI=1S/2K.H2O4S/c;;1-5(2,3)4/h;;(H2,1,2,3,4)/q2*+1;/p-2
Compound 2: water, H2O, InChI=1S/H2O/h1H2

System: water; phases: Liquid
Property: Thermal conductivity, W/m/K (Liquid); method: Coaxial cylinder method
Temperature, K	Pressure, kPa	Thermal conductivity, W/m/K	uncertainty
298.3	100	0.607	0.017
298.3	10000	0.613	0.017
298.3	30000	0.623	0.018
313.1	100	0.629	0.018
313.1	10000	0.634	0.018
313.1	30000	0.644	0.018
333.3	100	0.651	0.018
333.3	10000	0.656	0.018
333.3	30000	0.666	0.019
352.9	100	0.667	0.019
352.9	10000	0.672	0.019
352.9	30000	0.682	0.019
363.4	100	0.673	0.019
363.4	10000	0.678	0.019
363.4	30000	0.689	0.019
393.1	10000	0.689	0.019
393.1	30000	0.702	0.02
423.3	10000	0.691	0.019
423.3	30000	0.704	0.02
448.7	10000	0.685	0.019
448.7	30000	0.699	0.02
474.3	10000	0.672	0.019
474.3	30000	0.689	0.019
499.3	10000	0.652	0.018
499.3	30000	0.672	0.019
523.4	10000	0.624	0.018
523.4	30000	0.649	0.018
548.4	10000	0.591	0.017
548.4	30000	0.622	0.018
573.5	10000	0.547	0.015
573.5	30000	0.588	0.017

System: water; phases: Liquid
Property: Viscosity, Pa*s (Liquid); method: Capillary tube (Ostwald; Ubbelohde) method
Temperature, K	Pressure, kPa	Viscosity, Pa*s	uncertainty
299.76	100	0.0008591	2.74e-05
299.76	10000	0.0008561	2.74e-05
299.76	30000	0.0008551	2.72e-05
315.62	100	0.0006245	2.04e-05
315.62	10000	0.0006234	2.03e-05
315.62	30000	0.0006292	2.04e-05
328.37	100	0.0005	1.58e-05
328.37	10000	0.000503	1.59e-05
328.37	30000	0.0005071	1.6e-05
347.95	100	0.0003761	1.21e-05
347.95	10000	0.0003803	1.19e-05
347.95	30000	0.0003872	1.21e-05
375.85	10000	0.0002772	8.7e-06
375.85	30000	0.0002833	8.9e-06
403.95	10000	0.0002131	6.7e-06
403.95	30000	0.0002181	6.8e-06
431.43	10000	0.0001738	5.4e-06
431.43	30000	0.0001786	5.6e-06
476.4	10000	0.0001326	4.2e-06
476.4	30000	0.0001375	4.3e-06
502.75	10000	0.0001189	3.8e-06
502.75	30000	0.0001239	3.9e-06
524.75	10000	0.0001081	3.5e-06
524.75	30000	0.0001132	3.6e-06
549.5	10000	9.61e-05	3.1e-06
549.5	30000	0.0001011	3.2e-06
574.54	10000	8.51e-05	2.8e-06
574.54	30000	9.18e-05	3e-06

System: water + potassium sulfate; phases: Liquid
Property: Thermal conductivity, W/m/K (Liquid); method: Coaxial cylinder method
Temperature, K	Pressure, kPa	Molality, mol/kg of potassium sulfate	Thermal conductivity, W/m/K	uncertainty
298	100	0.499	0.602	0.017
298	10000	0.499	0.607	0.017
298	30000	0.499	0.616	0.017
298.4	100	0.239	0.605	0.017
298.4	10000	0.239	0.61	0.017
298.4	30000	0.239	0.62	0.017
313	100	0.239	0.626	0.018
313	10000	0.239	0.631	0.018
313	30000	0.239	0.641	0.018
313.1	100	0.782	0.618	0.017
313.1	10000	0.782	0.623	0.018
313.1	30000	0.782	0.632	0.018
313.6	100	0.499	0.622	0.017
313.6	10000	0.499	0.627	0.018
313.6	30000	0.499	0.637	0.018
333.3	100	0.782	0.64	0.018
333.3	10000	0.782	0.645	0.018
333.3	30000	0.782	0.655	0.018
333.6	100	0.239	0.649	0.018
333.6	10000	0.239	0.654	0.018
333.6	30000	0.239	0.664	0.019
333.7	100	0.499	0.645	0.018
333.7	10000	0.499	0.65	0.018
333.7	30000	0.499	0.66	0.019
352.9	100	0.499	0.66	0.019
352.9	100	0.782	0.654	0.018
352.9	10000	0.499	0.665	0.019
352.9	10000	0.782	0.659	0.019
352.9	30000	0.499	0.675	0.019
352.9	30000	0.782	0.67	0.019
353.3	100	0.239	0.665	0.019
353.3	10000	0.239	0.67	0.019
353.3	30000	0.239	0.679	0.019
363	100	0.499	0.666	0.019
363	10000	0.499	0.671	0.019
363	30000	0.499	0.68	0.019
363.4	100	0.239	0.67	0.019
363.4	100	0.782	0.66	0.019
363.4	10000	0.239	0.675	0.019
363.4	10000	0.782	0.665	0.019
363.4	30000	0.239	0.685	0.019
363.4	30000	0.782	0.675	0.019
393.1	10000	0.499	0.679	0.019
393.1	10000	0.782	0.672	0.019
393.1	30000	0.499	0.69	0.019
393.1	30000	0.782	0.685	0.019
393.5	10000	0.239	0.684	0.019
393.5	30000	0.239	0.695	0.019
423	10000	0.499	0.678	0.019
423	30000	0.499	0.69	0.019
423.3	10000	0.782	0.671	0.019
423.3	30000	0.782	0.684	0.019
423.6	10000	0.239	0.683	0.019
423.6	30000	0.239	0.696	0.02
448.1	10000	0.782	0.665	0.019
448.1	30000	0.782	0.681	0.019
448.7	10000	0.239	0.678	0.019
448.7	30000	0.239	0.691	0.019
449.8	10000	0.499	0.672	0.019
449.8	30000	0.499	0.686	0.019
472.9	10000	0.499	0.659	0.019
472.9	30000	0.499	0.676	0.019
473.4	10000	0.239	0.665	0.019
473.4	30000	0.239	0.681	0.019
473.8	10000	0.782	0.652	0.018
473.8	30000	0.782	0.671	0.019
498.3	10000	0.499	0.639	0.018
498.3	30000	0.499	0.657	0.018
498.5	10000	0.239	0.644	0.018
498.5	30000	0.239	0.664	0.019
498.6	10000	0.782	0.632	0.018
498.6	30000	0.782	0.65	0.018
523.2	10000	0.499	0.61	0.017
523.2	30000	0.499	0.63	0.018
523.3	10000	0.239	0.617	0.017
523.3	30000	0.239	0.637	0.018
523.9	10000	0.782	0.602	0.017
523.9	30000	0.782	0.623	0.018
547.9	10000	0.239	0.584	0.016
547.9	30000	0.239	0.61	0.017
548.2	10000	0.499	0.577	0.016
548.2	30000	0.499	0.604	0.017
548.5	10000	0.782	0.57	0.016
548.5	30000	0.782	0.598	0.017
573.2	10000	0.499	0.534	0.015
573.2	10000	0.782	0.525	0.015
573.2	30000	0.499	0.568	0.016
573.2	30000	0.782	0.56	0.016
573.8	10000	0.239	0.54	0.015
573.8	30000	0.239	0.574	0.016

System: water + potassium sulfate; phases: Liquid
Property: Viscosity, Pa*s (Liquid); method: Capillary tube (Ostwald; Ubbelohde) method
Temperature, K	Pressure, kPa	Molality, mol/kg of potassium sulfate	Viscosity, Pa*s	uncertainty
298.15	0.1	0.0658	0.0009039	2.89e-05
298.15	0.1	0.2055	0.000931	2.99e-05
298.15	0.1	0.305	0.0009616	3.07e-05
298.15	0.1	0.407	0.0009825	3.14e-05
298.15	10	0.0658	0.0009023	2.89e-05
298.15	10	0.2055	0.0009297	2.98e-05
298.15	10	0.305	0.0009618	3.07e-05
298.15	10	0.407	0.0009823	3.14e-05
298.15	20	0.0658	0.000904	2.89e-05
298.15	20	0.2055	0.000931	2.98e-05
298.15	20	0.305	0.0009615	3.07e-05
298.15	20	0.407	0.0009826	3.14e-05
298.15	30	0.0658	0.0009053	2.89e-05
298.15	30	0.2055	0.0009319	2.98e-05
298.15	30	0.305	0.000964	3.08e-05
298.15	30	0.407	0.000983	3.14e-05
311.65	0.1	0.2055	0.0007107	2.31e-05
311.65	10	0.2055	0.0007122	2.31e-05
311.65	20	0.2055	0.0007133	2.32e-05
311.65	30	0.2055	0.0007151	2.32e-05
312.25	0.1	0.407	0.0007386	2.41e-05
312.25	10	0.407	0.0007414	2.41e-05
312.25	20	0.407	0.0007439	2.42e-05
312.25	30	0.407	0.0007452	2.42e-05
312.55	0.1	0.305	0.0007172	2.34e-05
312.55	10	0.305	0.0007194	2.35e-05
312.55	20	0.305	0.0007207	2.35e-05
312.55	30	0.305	0.0007227	2.36e-05
313.55	0.1	0.0658	0.0006609	2.17e-05
313.55	10	0.0658	0.0006613	2.17e-05
313.55	20	0.0658	0.000665	2.18e-05
313.55	30	0.0658	0.000667	2.18e-05
323.15	0.1	0.2055	0.0005819	1.83e-05
323.15	0.1	0.305	0.0005972	1.87e-05
323.15	10	0.2055	0.0005837	1.83e-05
323.15	10	0.305	0.0005991	1.88e-05
323.15	20	0.2055	0.0005858	1.84e-05
323.15	20	0.305	0.0006019	1.89e-05
323.15	30	0.2055	0.0005885	1.85e-05
323.15	30	0.305	0.0006045	1.89e-05
323.25	0.1	0.0658	0.0005568	1.75e-05
323.25	10	0.0658	0.0005586	1.75e-05
323.25	20	0.0658	0.0005601	1.76e-05
323.25	30	0.0658	0.0005617	1.76e-05
323.35	0.1	0.407	0.0006109	1.92e-05
323.35	10	0.407	0.000613	1.92e-05
323.35	20	0.407	0.0006159	1.93e-05
323.35	30	0.407	0.000618	1.94e-05
348.15	0.1	0.407	0.0004271	1.37e-05
348.15	10	0.407	0.0004316	1.36e-05
348.15	20	0.407	0.0004354	1.37e-05
348.15	30	0.407	0.000438	1.38e-05
348.25	0.1	0.305	0.0004147	1.33e-05
348.25	10	0.305	0.0004182	1.33e-05
348.25	20	0.305	0.0004217	1.34e-05
348.25	30	0.305	0.0004248	1.34e-05
348.45	0.1	0.0658	0.0003842	1.24e-05
348.45	10	0.0658	0.0003869	1.22e-05
348.45	20	0.0658	0.0003912	1.23e-05
348.45	30	0.0658	0.0003963	1.24e-05
348.95	0.1	0.2055	0.0003988	1.29e-05
348.95	10	0.2055	0.000402	1.28e-05
348.95	20	0.2055	0.0004048	1.29e-05
348.95	30	0.2055	0.0004076	1.29e-05
365.45	10	0.2055	0.0003303	1.03e-05
365.45	20	0.2055	0.0003339	1.04e-05
365.45	30	0.2055	0.0003363	1.04e-05
365.95	10	0.305	0.0003396	1.06e-05
365.95	20	0.305	0.0003421	1.06e-05
365.95	30	0.305	0.000346	1.07e-05
372.55	10	0.407	0.0003265	1.02e-05
372.55	20	0.407	0.00033	1.03e-05
372.55	30	0.407	0.0003329	1.04e-05
376.65	10	0.0658	0.0002805	8.8e-06
376.65	20	0.0658	0.0002846	8.9e-06
376.65	30	0.0658	0.0002884	9e-06
396.35	10	0.407	0.0002605	8.1e-06
396.35	20	0.407	0.0002628	8.2e-06
396.35	30	0.407	0.0002667	8.3e-06
396.65	10	0.2055	0.0002435	7.6e-06
396.65	20	0.2055	0.0002464	7.7e-06
396.65	30	0.2055	0.0002492	7.8e-06
397.25	10	0.305	0.0002503	7.8e-06
397.25	20	0.305	0.0002531	7.9e-06
397.25	30	0.305	0.0002565	8e-06
398.55	10	0.0658	0.0002289	7.1e-06
398.55	20	0.0658	0.0002321	7.2e-06
398.55	30	0.0658	0.000236	7.3e-06
422.05	10	0.407	0.0002131	6.6e-06
422.05	20	0.407	0.0002154	6.7e-06
422.05	30	0.407	0.0002189	6.8e-06
423.55	10	0.305	0.000204	6.4e-06
423.55	20	0.305	0.0002068	6.4e-06
423.55	30	0.305	0.0002096	6.5e-06
423.85	10	0.0658	0.0001881	5.9e-06
423.85	20	0.0658	0.0001926	6e-06
423.85	30	0.0658	0.000196	6.1e-06
425.45	10	0.2055	0.0001946	6.1e-06
425.45	20	0.2055	0.0001974	6.2e-06
425.45	30	0.2055	0.0002	6.2e-06
446.85	10	0.407	0.0001811	5.6e-06
446.85	20	0.407	0.000184	5.7e-06
446.85	30	0.407	0.0001867	5.8e-06
447.35	10	0.0658	0.0001613	5.1e-06
447.35	20	0.0658	0.0001645	5.2e-06
447.35	30	0.0658	0.000166	5.2e-06
448.35	10	0.2055	0.0001679	5.2e-06
448.35	20	0.2055	0.0001705	5.3e-06
448.35	30	0.2055	0.0001732	5.4e-06
448.55	10	0.305	0.0001735	5.4e-06
448.55	20	0.305	0.0001769	5.5e-06
448.55	30	0.305	0.000179	5.6e-06
470.75	10	0.407	0.0001586	5e-06
470.75	20	0.407	0.0001605	5e-06
470.75	30	0.407	0.0001641	5.1e-06
472.05	10	0.0658	0.0001403	4.4e-06
472.05	20	0.0658	0.0001436	4.5e-06
472.05	30	0.0658	0.000146	4.6e-06
475.85	10	0.305	0.0001492	4.7e-06
475.85	20	0.305	0.0001521	4.8e-06
475.85	30	0.305	0.0001545	4.8e-06
477.45	10	0.2055	0.000143	4.5e-06
477.45	20	0.2055	0.0001456	4.6e-06
477.45	30	0.2055	0.0001482	4.7e-06
496.35	10	0.0658	0.0001244	3.9e-06
496.35	20	0.0658	0.0001276	4e-06
496.35	30	0.0658	0.00013	4.1e-06
497.45	10	0.2055	0.0001294	4.1e-06
497.45	20	0.2055	0.0001322	4.2e-06
497.45	30	0.2055	0.0001348	4.2e-06
498.55	10	0.407	0.0001388	4.4e-06
498.55	20	0.407	0.0001409	4.4e-06
498.55	30	0.407	0.0001444	4.5e-06
499.95	10	0.305	0.0001332	4.2e-06
499.95	20	0.305	0.0001369	4.3e-06
499.95	30	0.305	0.00014	4.4e-06
523.05	10	0.2055	0.0001162	3.7e-06
523.05	20	0.2055	0.0001191	3.8e-06
523.05	30	0.2055	0.0001219	3.9e-06
523.85	10	0.407	0.0001248	3.9e-06
523.85	20	0.407	0.0001286	4.1e-06
523.85	30	0.407	0.0001307	4.1e-06
524.45	10	0.0658	0.0001097	3.5e-06
524.45	20	0.0658	0.0001135	3.6e-06
524.45	30	0.0658	0.000116	3.7e-06
527.35	10	0.305	0.0001185	3.8e-06
527.35	20	0.305	0.0001216	3.9e-06
527.35	30	0.305	0.0001243	3.9e-06
541.55	10	0.407	0.0001171	3.7e-06
541.55	20	0.407	0.00012	3.8e-06
541.55	30	0.407	0.0001236	3.9e-06
545.05	10	0.0658	0.0001008	3.2e-06
545.05	20	0.0658	0.0001045	3.3e-06
545.05	30	0.0658	0.0001072	3.4e-06
548.45	10	0.305	0.0001087	3.5e-06
548.45	20	0.305	0.0001119	3.6e-06
548.45	30	0.305	0.000115	3.7e-06
550.55	10	0.2055	0.0001039	3.3e-06
550.55	20	0.2055	0.0001072	3.4e-06
550.55	30	0.2055	0.0001105	3.5e-06
571.55	10	0.0658	9.02e-05	2.9e-06
571.55	20	0.0658	9.4e-05	3e-06
571.55	30	0.0658	9.72e-05	3.1e-06
573.35	10	0.305	9.76e-05	3.1e-06
573.35	20	0.305	0.0001016	3.3e-06
573.35	30	0.305	0.0001035	3.3e-06
574.35	10	0.2055	9.4e-05	3e-06
574.35	20	0.2055	9.73e-05	3.1e-06
574.35	30	0.2055	0.0001014	3.3e-06
575.25	10	0.407	0.0001021	3.3e-06
575.25	20	0.407	0.0001067	3.4e-06
575.25	30	0.407	0.0001102	3.5e-06
