Measured thermophysical data. Experimental Solubility and Thermodynamic Modeling of Carbon Dioxide in Aqueous Alkanolamine Solutions in the High Gas Loading Region
Source: Int. J. Thermophys., 2016, 10.1007/s10765-016-2103-8
Compound 1: 2-aminoethan-1-ol, C2H7NO, InChI=1S/C2H7NO/c3-1-2-4/h4H,1-3H2
Compound 2: diethanolamine, C4H11NO2, InChI=1S/C4H11NO2/c6-3-1-5-2-4-7/h5-7H,1-4H2
Compound 3: N-methyldiethanolamine, C5H13NO2, InChI=1S/C5H13NO2/c1-6(2-4-7)3-5-8/h7-8H,2-5H2,1H3
Compound 4: 2-amino-2-methylpropan-1-ol, C4H11NO, InChI=1S/C4H11NO/c1-4(2,5)3-6/h6H,3,5H2,1-2H3
Compound 5: piperazine, C4H10N2, InChI=1S/C4H10N2/c1-2-6-4-3-5-1/h5-6H,1-4H2
Compound 6: water, H2O, InChI=1S/H2O/h1H2
Compound 7: carbon dioxide, CO2, InChI=1S/CO2/c2-1-3

System: carbon dioxide + 2-aminoethan-1-ol + water; phases: Liquid, Gas
Property: Mole fraction of carbon dioxide (Liquid); method: Phase equilibration
Temperature, K	Pressure, kPa of carbon dioxide	Solvent: Amount concentration (molarity), mol/dm3 of 2-aminoethan-1-ol	Mole fraction of carbon dioxide	uncertainty
303.15	95.625	2	0.7642	0.015
303.15	477.5	2	0.9365	0.004
303.15	1088.8	2	1.0721	0.0046
303.15	1441.3	2	1.1254	0.008
303.15	1976.3	2	1.1963	0.0125
303.15	3035	2	1.3065	0.0195
303.15	4008.8	2	1.3858	0.0246
323.15	92.5	2	0.6853	0.02
323.15	511.25	2	0.8452	0.0099
323.15	947.5	2	0.9328	0.0043
323.15	1566.3	2	1.0245	0.0016
323.15	2097.5	2	1.0867	0.0055
323.15	3037.5	2	1.1635	0.0104
323.15	3986.3	2	1.245	0.0156
343.15	126.25	2	0.6234	0.024
343.15	497.5	2	0.7682	0.0148
343.15	1103.8	2	0.8625	0.0088
343.15	1490.6	2	0.9251	0.0048
343.15	1966.3	2	0.9728	0.0017
343.15	3186.3	2	1.082	0.0052
343.15	4026.3	2	1.1378	0.0088
303.15	102.5	4	0.6685	0.0211
303.15	514.38	4	0.8218	0.0113
303.15	962.5	4	0.8824	0.0075
303.15	1517.5	4	0.9251	0.0048
303.15	2013.8	4	0.9637	0.0023
303.15	3042.5	4	1.0288	0.0018
303.15	4048.1	4	1.0684	0.0044
323.15	104.38	4	0.6008	0.0254
323.15	496.25	4	0.7224	0.0177
323.15	953.75	4	0.7974	0.0129
323.15	1523.8	4	0.844	0.01
323.15	2046.3	4	0.8725	0.0081
323.15	3113.8	4	0.9322	0.0043
323.15	4013.8	4	0.9758	0.0015
343.15	97.5	4	0.5407	0.0292
343.15	478.75	4	0.6653	0.0213
343.15	1067.5	4	0.7266	0.0174
343.15	1423.8	4	0.7684	0.0147
343.15	1980.6	4	0.8042	0.0125
343.15	2926.3	4	0.8528	0.0094
343.15	4113.1	4	0.8891	0.0071

System: diethanolamine + carbon dioxide + water; phases: Liquid, Gas
Property: Mole fraction of carbon dioxide (Liquid); method: Phase equilibration
Temperature, K	Pressure, kPa of carbon dioxide	Solvent: Amount concentration (molarity), mol/dm3 of diethanolamine	Mole fraction of carbon dioxide	uncertainty
303.15	99.375	2	0.7498	0.0159
303.15	591.25	2	0.9622	0.0024
303.15	971.88	2	1.042	0.0027
303.15	1511.3	2	1.091	0.0058
303.15	2058.8	2	1.1415	0.009
303.15	3051.3	2	1.197	0.0125
303.15	4057.5	2	1.257	0.0164
323.15	115	2	0.7114	0.0184
323.15	560.63	2	0.854	0.0093
323.15	1105	2	0.9868	0.0008
323.15	1471.3	2	1.0285	0.0018
323.15	2068.1	2	1.0787	0.005
323.15	2978.8	2	1.1372	0.0087
323.15	3962.5	2	1.197	0.0125
343.15	111.88	2	0.6521	0.0221
343.15	531.25	2	0.8055	0.0124
343.15	1088.8	2	0.9217	0.005
343.15	1501.3	2	0.9758	0.0015
343.15	2068.8	2	1.0218	0.0014
343.15	2991.8	2	1.0865	0.0055
343.15	3987.5	2	1.145	0.0092
303.15	120	4	0.6733	0.0208
303.15	516.88	4	0.8248	0.0111
303.15	1038.8	4	0.8841	0.0074
303.15	1501.3	4	0.9567	0.0028
303.15	1960	4	0.9962	0.0002
303.15	3008.8	4	1.0652	0.0041
303.15	4042.5	4	1.1242	0.0079
323.15	106.88	4	0.5985	0.0256
323.15	528.88	4	0.7141	0.0182
323.15	1108.8	4	0.7936	0.0131
323.15	1651.3	4	0.8527	0.0094
323.15	2038.8	4	0.8863	0.0072
323.15	3116.3	4	0.9451	0.0035
323.15	3936.3	4	0.9845	0.001
343.15	98.125	4	0.5448	0.029
343.15	441.88	4	0.6411	0.0228
343.15	1033.8	4	0.7245	0.0175
343.15	1602.5	4	0.7617	0.0152
343.15	1918.8	4	0.7827	0.0138
343.15	3177.5	4	0.8474	0.0097
343.15	4087.5	4	0.8824	0.0075

System: N-methyldiethanolamine + carbon dioxide + water; phases: Liquid, Gas
Property: Mole fraction of carbon dioxide (Liquid); method: Phase equilibration
Temperature, K	Pressure, kPa of carbon dioxide	Solvent: Amount concentration (molarity), mol/dm3 of N-methyldiethanolamine	Mole fraction of carbon dioxide	uncertainty
303.15	117.5	2	0.9857	0.0009
303.15	537.5	2	1.0825	0.0053
303.15	1022.5	2	1.1661	0.0106
303.15	1436.8	2	1.2165	0.0138
303.15	2077.5	2	1.2851	0.0181
303.15	3078.8	2	1.3748	0.0239
303.15	4113.8	2	1.4861	0.0309
323.15	142.5	2	0.7851	0.0137
323.15	481.88	2	0.9211	0.005
323.15	1132.5	2	1.054	0.0034
323.15	1663.8	2	1.1156	0.0074
323.15	2047.5	2	1.1524	0.0097
323.15	2983.8	2	1.2356	0.015
323.15	3936.3	2	1.3012	0.0192
343.15	87.5	2	0.5358	0.0295
343.15	493.75	2	0.7252	0.0175
343.15	1036.3	2	0.9045	0.0061
343.15	1563.8	2	0.9725	0.0018
343.15	2015	2	1.0344	0.0022
343.15	3007.5	2	1.0809	0.0051
343.15	4021.3	2	1.1524	0.0097
303.15	116.25	4	0.7782	0.0141
303.15	405	4	0.9011	0.0063
303.15	1050	4	0.9599	0.0026
303.15	1532.5	4	1.0016	0.0001
303.15	2050	4	1.0272	0.0017
303.15	3071.3	4	1.0702	0.0045
303.15	4086.3	4	1.0936	0.006
323.15	101.25	4	0.5624	0.0278
323.15	571.25	4	0.7286	0.0173
323.15	1057.5	4	0.8135	0.0119
323.15	1563.8	4	0.8809	0.0076
323.15	2017.5	4	0.9237	0.0049
323.15	3151.3	4	0.9695	0.0019
323.15	4027.5	4	1.0354	0.0023
343.15	98.125	4	0.3488	0.0222
343.15	485	4	0.574	0.0271
343.15	988.75	4	0.6528	0.0221
343.15	1486.3	4	0.7503	0.0159
343.15	2105	4	0.8261	0.0111
343.15	3028.8	4	0.8727	0.0081
343.15	4066.3	4	0.9539	0.0029

System: carbon dioxide + 2-amino-2-methylpropan-1-ol + water; phases: Liquid, Gas
Property: Mole fraction of carbon dioxide (Liquid); method: Phase equilibration
Temperature, K	Pressure, kPa of carbon dioxide	Solvent: Amount concentration (molarity), mol/dm3 of 2-amino-2-methylpropan-1-ol	Mole fraction of carbon dioxide	uncertainty
303.15	103.75	2	0.9825	0.0011
303.15	523.75	2	1.0555	0.0035
303.15	1248.8	2	1.1081	0.0069
303.15	1565	2	1.1483	0.0094
303.15	2067.5	2	1.168	0.0107
303.15	3032.5	2	1.2547	0.0162
303.15	4030	2	1.3098	0.0197
323.15	122.5	2	0.8816	0.0075
323.15	510	2	0.9854	0.0009
323.15	1036.3	2	1.0451	0.0029
323.15	1543.8	2	1.0947	0.006
323.15	2041.3	2	1.1254	0.008
323.15	3012.5	2	1.2158	0.0137
323.15	4050	2	1.2857	0.0182
343.15	210	2	0.7047	0.0188
343.15	572.5	2	0.9366	0.004
343.15	1093.8	2	1.0131	0.0008
343.15	1552.5	2	1.0571	0.0036
343.15	2058.8	2	1.0861	0.0055
343.15	3081.3	2	1.1738	0.0111
343.15	4150	2	1.2631	0.0167
303.15	112.5	4	0.9261	0.0047
303.15	597.5	4	0.9655	0.0022
303.15	1056.3	4	1.0024	0.0002
303.15	1512.5	4	1.0245	0.0016
303.15	2201.3	4	1.0413	0.0026
303.15	3032.5	4	1.0755	0.0048
303.15	4065	4	1.1097	0.007
323.15	125	4	0.8314	0.0107
323.15	450	4	0.8785	0.0077
323.15	1088.8	4	0.9465	0.0034
323.15	1527.5	4	0.9781	0.0014
323.15	2037.5	4	0.9995	0.0001
323.15	3086.3	4	1.0375	0.0024
323.15	4105	4	1.0688	0.0044
343.15	265	4	0.6946	0.0194
343.15	505	4	0.8199	0.0115
343.15	1091.3	4	0.9094	0.0058
343.15	1590	4	0.937	0.004
343.15	2058.8	4	0.9665	0.0021
343.15	3125	4	0.9919	0.0005
343.15	4045	4	1.0258	0.0016

System: piperazine + carbon dioxide + water; phases: Liquid, Gas
Property: Mole fraction of carbon dioxide (Liquid); method: Phase equilibration
Temperature, K	Pressure, kPa of carbon dioxide	Solvent: Amount concentration (molarity), mol/dm3 of piperazine	Mole fraction of carbon dioxide	uncertainty
303.15	103.75	2	0.9925	0.0005
303.15	480	2	1.1393	0.0089
303.15	1085	2	1.2819	0.0179
303.15	1565	2	1.3708	0.0236
303.15	2020	2	1.4509	0.0287
303.15	2893.8	2	1.5585	0.0355
303.15	4005	2	1.6823	0.0434
323.15	127.5	2	0.9125	0.0056
323.15	517.5	2	1.0316	0.002
323.15	1046.3	2	1.1255	0.008
323.15	1573.8	2	1.2177	0.0139
323.15	2065	2	1.29	0.0185
323.15	3037.5	2	1.3611	0.023
323.15	4080	2	1.4822	0.0307
343.15	165	2	0.8353	0.0105
343.15	485	2	0.9272	0.0046
343.15	1052.5	2	1.0075	0.0005
343.15	1550	2	1.0835	0.0053
343.15	2090	2	1.1517	0.0097
343.15	3148.8	2	1.2352	0.015
343.15	4002.5	2	1.3271	0.0208
323.15	62.5	4	0.8429	0.01
323.15	507.5	4	0.9619	0.0024
323.15	1033.8	4	1.0355	0.0023
323.15	1658.8	4	1.0882	0.0056
323.15	2113.8	4	1.119	0.0076
323.15	3007.5	4	1.1668	0.0106
323.15	4021.3	4	1.2055	0.0131
343.15	123.75	4	0.7959	0.013
343.15	478.75	4	0.9066	0.0059
343.15	1097.5	4	0.9668	0.0021
343.15	1587.5	4	1.0025	0.0002
343.15	2042.5	4	1.0366	0.0023
343.15	2923.8	4	1.0855	0.0054
343.15	3787.5	4	1.1158	0.0074
