Measured thermophysical data. Density Measurement of Molten Alkaline-Earth Fluorides Using Archimedean Dual-Sinker Method
Source: Int. J. Thermophys., 2015, 10.1007/s10765-015-1994-0
Compound 1: magnesium difluoride, F2Mg, InChI=1S/2FH.Mg/h2*1H;/q;;+2/p-2
Compound 2: calcium fluoride, CaF2, InChI=1S/Ca.2FH/h;2*1H/q+2;;/p-2
Compound 3: strontium fluoride, F2Sr, InChI=1S/2FH.Sr/h2*1H;/q;;+2/p-2
Compound 4: barium difluoride, BaF2, InChI=1S/Ba.2FH/h;2*1H/q+2;;/p-2

System: magnesium difluoride; phases: Liquid
Fixed: Pressure, kPa = 101.325
Property: Mass density, kg/m3 (Liquid); method: Buoyancy - hydrostatic balance with magnetic suspension - two sinkers
Temperature, K	Mass density, kg/m3	uncertainty
1821.1	2291	13.7
1781.6	2305.2	13.8
1742.8	2320	13.9
1702.7	2336.8	14
1663.7	2355	14.1
1624.8	2373.1	14.2
1585.3	2393.2	14.4
1545.8	2413.7	14.5
1526.2	2426.8	14.6
1568.2	2406.2	14.4
1609.3	2386.5	14.3
1648.7	2368.2	14.2
1688.2	2350.1	14.1
1727.3	2332.5	14
1766.1	2316.7	13.9
1804.8	2300.3	13.8
1843.6	2284.4	13.7
1871.8	2273.9	13.6
1861.6	2279.5	13.7

System: calcium fluoride; phases: Liquid
Fixed: Pressure, kPa = 101.325
Property: Mass density, kg/m3 (Liquid); method: Buoyancy - hydrostatic balance with magnetic suspension - two sinkers
Temperature, K	Mass density, kg/m3	uncertainty
1870.2	2447.1	14.8
1812.6	2474.3	14.8
1832.2	2463.7	14.8
1851.2	2453.9	14.7
1869.8	2445.1	14.8
1860.1	2448.7	14.7
1839.9	2456.8	14.7
1820.3	2464.2	14.8
1800.3	2472.5	14.8
1780.4	2481.6	14.9
1770.8	2486.7	14.9
1750.9	2497.1	15
1731.3	2507.1	15
1711.7	2513.6	15.1
1692.4	2522.2	15.1
1703.2	2517.9	15.1
1723.8	2506.5	15
1743.9	2495.9	15
1812.6	2474.3	14.8

System: strontium fluoride; phases: Liquid
Fixed: Pressure, kPa = 101.325
Property: Mass density, kg/m3 (Liquid); method: Buoyancy - hydrostatic balance with magnetic suspension - two sinkers
Temperature, K	Mass density, kg/m3	uncertainty
1823.7	3463.9	20.8
1843	3450.5	20.7
1862.6	3439.5	20.6
1871.1	3434.2	20.6
1851	3446.8	20.7
1831.2	3458.3	20.8
1811	3470.6	20.8
1791.2	3482.7	20.9
1771.6	3495.6	21
1751.9	3508.2	21.1
1733	3512.8	21.1
1763.4	3499.5	21.1
1783.4	3488.1	20.9
1803.1	3473.7	20.8
1762.4	3504.1	21.1
1752.9	3507.8	21.1
1742.8	3513.8	21.1
1732.9	3518	21.1

System: barium difluoride; phases: Liquid
Fixed: Pressure, kPa = 101.325
Property: Mass density, kg/m3 (Liquid); method: Buoyancy - hydrostatic balance with magnetic suspension - two sinkers
Temperature, K	Mass density, kg/m3	uncertainty
1716.4	4059.9	24.4
1795	3974.1	23.9
1833.8	3942.4	23.7
1872.5	3910	23.5
1851.8	3924.7	23.6
1811.6	3957	23.7
1771.7	3991.6	24
1732.4	4024.1	24.2
1693	4084.7	24.5
1653.1	4116.8	25.9
1614.2	4152.6	27.8
1636.4	4127.7	25
1676.6	4088.9	24.5
1716.5	4044.1	24.3
1754	4008.6	24.1
1653.6	4104.1	25.9
1614.6	4136.2	27.7
1635.2	4115.2	24.9
