Measured thermophysical data. Densities and Refractive Indices of Binary Mixtures of Benzene with Triethylamine and Tributylamine at Different Temperatures
Source: Int. J. Thermophys., 2006, 10.1007/s10765-006-0095-5
Compound 1: benzene, C6H6, InChI=1S/C6H6/c1-2-4-6-5-3-1/h1-6H
Compound 2: triethylamine, C6H15N, InChI=1S/C6H15N/c1-4-7(5-2)6-3/h4-6H2,1-3H3
Compound 3: tributylamine, C12H27N, InChI=1S/C12H27N/c1-4-7-10-13(11-8-5-2)12-9-6-3/h4-12H2,1-3H3

System: benzene; phases: Liquid
Fixed: Pressure, kPa = 101.325
Property: Refractive index (Na D-line) (Liquid); method: ABBE:UFactor:6
Temperature, K	Refractive index (Na D-line)	uncertainty
298.15	1.4979	0.0019
303.15	1.4962	0.0019
308.15	1.4944	0.0019
313.15	1.4929	0.0019
318.15	1.4911	0.0019

System: benzene; phases: Liquid
Fixed: Pressure, kPa = 101
Property: Mass density, kg/m3 (Liquid); method: PYCNOM:UFactor:12
Temperature, K	Mass density, kg/m3	uncertainty
298.15	873.6	2.5
303.15	870.8	2.6
308.15	865.7	2.7
313.15	861	2.9
318.15	856.3	3

System: triethylamine; phases: Liquid
Fixed: Pressure, kPa = 101.325
Property: Refractive index (Na D-line) (Liquid); method: ABBE:UFactor:6
Temperature, K	Refractive index (Na D-line)	uncertainty
298.15	1.4011	0.0019
303.15	1.3983	0.0019
308.15	1.395	0.0019
313.15	1.3928	0.0019
318.15	1.3898	0.0019

System: triethylamine; phases: Liquid
Fixed: Pressure, kPa = 101
Property: Mass density, kg/m3 (Liquid); method: PYCNOM:UFactor:12
Temperature, K	Mass density, kg/m3	uncertainty
298.15	723.4	1.9
303.15	717.9	2.1
308.15	712.9	2.2
313.15	708.3	2.3
318.15	701.6	2.4

System: tributylamine; phases: Liquid
Fixed: Pressure, kPa = 101.325
Property: Refractive index (Na D-line) (Liquid); method: ABBE:UFactor:6
Temperature, K	Refractive index (Na D-line)	uncertainty
298.15	1.4274	0.0019
303.15	1.4259	0.0019
308.15	1.4231	0.0019
313.15	1.421	0.0019
318.15	1.4188	0.0019

System: tributylamine; phases: Liquid
Fixed: Pressure, kPa = 101
Property: Mass density, kg/m3 (Liquid); method: PYCNOM:UFactor:12
Temperature, K	Mass density, kg/m3	uncertainty
298.15	774.3	2.1
303.15	770.8	2.3
308.15	767.2	2.4
313.15	763.6	2.5
318.15	759.8	2.6

System: benzene + tributylamine; phases: Liquid
Fixed: Pressure, kPa = 101
Property: Refractive index (Na D-line) (Liquid); method: ABBE:UFactor:6
Temperature, K	Mole fraction of benzene	Refractive index (Na D-line)	uncertainty
278.15	0.0702	1.4425	0.0019
278.15	0.1162	1.4495	0.0019
278.15	0.1687	1.4566	0.0019
278.15	0.2383	1.4636	0.0019
278.15	0.3091	1.4707	0.0019
278.15	0.4032	1.4779	0.0019
278.15	0.5043	1.485	0.0019
278.15	0.6492	1.4922	0.0019
278.15	0.8251	1.4994	0.0019
283.15	0.0702	1.4414	0.0019
283.15	0.1162	1.4485	0.0019
283.15	0.1687	1.4557	0.0019
283.15	0.2383	1.4628	0.0019
283.15	0.3091	1.47	0.0019
283.15	0.4032	1.4771	0.0019
283.15	0.5043	1.4842	0.0019
283.15	0.6492	1.4914	0.0019
283.15	0.8251	1.4985	0.0019
288.15	0.0702	1.4406	0.0019
288.15	0.1162	1.448	0.0019
288.15	0.1687	1.4551	0.0019
288.15	0.2383	1.4621	0.0019
288.15	0.3091	1.4692	0.0019
288.15	0.4032	1.4763	0.0019
288.15	0.5043	1.4834	0.0019
288.15	0.6492	1.4905	0.0019
288.15	0.8251	1.4976	0.0019
293.15	0.0702	1.4394	0.0019
293.15	0.1162	1.4466	0.0019
293.15	0.1687	1.4538	0.0019
293.15	0.2383	1.4609	0.0019
293.15	0.3091	1.4681	0.0019
293.15	0.4032	1.4752	0.0019
293.15	0.5043	1.4824	0.0019
293.15	0.6492	1.4896	0.0019
293.15	0.8251	1.4967	0.0019
298.15	0.0702	1.4385	0.0019
298.15	0.1162	1.4456	0.0019
298.15	0.1687	1.4527	0.0019
298.15	0.2383	1.4602	0.0019
298.15	0.3091	1.4671	0.0019
298.15	0.4032	1.4742	0.0019
298.15	0.5043	1.4816	0.0019
298.15	0.6492	1.4881	0.0019
298.15	0.8251	1.4951	0.0019
303.15	0.0702	1.4383	0.0019
303.15	0.1162	1.4454	0.0019
303.15	0.1687	1.4524	0.0019
303.15	0.2383	1.46	0.0019
303.15	0.3091	1.4667	0.0019
303.15	0.4032	1.474	0.0019
303.15	0.5043	1.4812	0.0019
303.15	0.6492	1.4876	0.0019
303.15	0.8251	1.4946	0.0019
308.15	0.0702	1.4374	0.0019
308.15	0.1162	1.4443	0.0019
308.15	0.1687	1.4514	0.0019
308.15	0.2383	1.4589	0.0019
308.15	0.3091	1.4658	0.0019
308.15	0.4032	1.4733	0.0019
308.15	0.5043	1.4803	0.0019
308.15	0.6492	1.4868	0.0019
308.15	0.8251	1.4936	0.0019
313.15	0.0702	1.4366	0.0019
313.15	0.1162	1.4438	0.0019
313.15	0.1687	1.4508	0.0019
313.15	0.2383	1.4581	0.0019
313.15	0.3091	1.465	0.0019
313.15	0.4032	1.4726	0.0019
313.15	0.5043	1.4795	0.0019
313.15	0.6492	1.486	0.0019
313.15	0.8251	1.4928	0.0019
318.15	0.0702	1.4358	0.0019
318.15	0.1162	1.4431	0.0019
318.15	0.1687	1.45	0.0019
318.15	0.2383	1.4575	0.0019
318.15	0.3091	1.4643	0.0019
318.15	0.4032	1.4718	0.0019
318.15	0.5043	1.4788	0.0019
318.15	0.6492	1.4853	0.0019
318.15	0.8251	1.492	0.0019

System: benzene + tributylamine; phases: Liquid
Fixed: Pressure, kPa = 101
Property: Mass density, kg/m3 (Liquid); method: PYCNOM:UFactor:12
Temperature, K	Mole fraction of benzene	Mass density, kg/m3	uncertainty
278.15	0.0702	790.1	2.5
278.15	0.1162	791.1	2.5
278.15	0.1687	792.5	2.5
278.15	0.2383	794.9	2.5
278.15	0.3091	797.7	2.5
278.15	0.4032	802.2	2.5
278.15	0.5043	808.5	2.5
278.15	0.6492	821.3	2.6
278.15	0.8251	846.8	2.7
283.15	0.0702	786.7	2.3
283.15	0.1162	787.8	2.3
283.15	0.1687	789.3	2.3
283.15	0.2383	791.8	2.3
283.15	0.3091	794.6	2.3
283.15	0.4032	799.2	2.4
283.15	0.5043	805.6	2.4
283.15	0.6492	818.5	2.4
283.15	0.8251	844.1	2.5
288.15	0.0702	783.2	2.2
288.15	0.1162	784.4	2.2
288.15	0.1687	786	2.2
288.15	0.2383	788.5	2.2
288.15	0.3091	791.3	2.2
288.15	0.4032	795.9	2.2
288.15	0.5043	802.3	2.2
288.15	0.6492	815.2	2.3
288.15	0.8251	840.8	2.4
293.15	0.0702	779.9	2
293.15	0.1162	781.1	2
293.15	0.1687	782.7	2
293.15	0.2383	785.3	2
293.15	0.3091	788.1	2
293.15	0.4032	792.7	2.1
293.15	0.5043	799	2.1
293.15	0.6492	811.8	2.1
293.15	0.8251	837.1	2.2
298.15	0	774.3	2.1
298.15	0.0702	775.6	2.1
298.15	0.1162	776.9	2.1
298.15	0.1687	778.5	2.1
298.15	0.2383	781	2.2
298.15	0.3091	783.8	2.2
298.15	0.4032	788.3	2.2
298.15	0.5043	794.5	2.2
298.15	0.6492	807	2.3
298.15	0.8251	831.6	2.3
298.15	1	873.6	2.5
303.15	0	770.8	2.3
303.15	0.0702	772.5	2.3
303.15	0.1162	773.8	2.3
303.15	0.1687	775.4	2.3
303.15	0.2383	777.9	2.3
303.15	0.3091	780.8	2.3
303.15	0.4032	785.4	2.3
303.15	0.5043	791.6	2.3
303.15	0.6492	804.3	2.4
303.15	0.8251	829	2.5
303.15	1	870.8	2.6
308.15	0	767.2	2.4
308.15	0.0702	769.1	2.4
308.15	0.1162	770.4	2.4
308.15	0.1687	771.9	2.4
308.15	0.2383	774.4	2.4
308.15	0.3091	777.3	2.4
308.15	0.4032	781.9	2.4
308.15	0.5043	788.1	2.5
308.15	0.6492	800.6	2.5
308.15	0.8251	824.9	2.6
308.15	1	865.7	2.7
313.15	0	763.6	2.5
313.15	0.0702	765.5	2.5
313.15	0.1162	766.8	2.5
313.15	0.1687	768.4	2.5
313.15	0.2383	770.9	2.5
313.15	0.3091	773.8	2.5
313.15	0.4032	778.4	2.6
313.15	0.5043	784.5	2.6
313.15	0.6492	797	2.6
313.15	0.8251	821.1	2.7
313.15	1	861	2.9
318.15	0	759.8	2.6
318.15	0.0702	761.8	2.6
318.15	0.1162	763.1	2.6
318.15	0.1687	764.8	2.6
318.15	0.2383	767.2	2.7
318.15	0.3091	770.1	2.7
318.15	0.4032	774.7	2.7
318.15	0.5043	780.8	2.7
318.15	0.6492	793.3	2.8
318.15	0.8251	817.2	2.8
318.15	1	856.3	3

System: benzene + triethylamine; phases: Liquid
Fixed: Pressure, kPa = 101
Property: Refractive index (Na D-line) (Liquid); method: ABBE:UFactor:6
Temperature, K	Mole fraction of benzene	Refractive index (Na D-line)	uncertainty
278.15	0.1145	1.4149	0.0019
278.15	0.2043	1.4197	0.0019
278.15	0.3005	1.4261	0.0019
278.15	0.4005	1.4336	0.0019
278.15	0.5023	1.4421	0.0019
278.15	0.6037	1.4518	0.0019
278.15	0.7035	1.4625	0.0019
278.15	0.8079	1.4756	0.0019
278.15	0.9069	1.4902	0.0019
283.15	0.1145	1.4133	0.0019
283.15	0.2043	1.418	0.0019
283.15	0.3005	1.4243	0.0019
283.15	0.4005	1.4318	0.0019
283.15	0.5023	1.4404	0.0019
283.15	0.6037	1.4501	0.0019
283.15	0.7035	1.4609	0.0019
283.15	0.8079	1.474	0.0019
283.15	0.9069	1.4886	0.0019
288.15	0.1145	1.4113	0.0019
288.15	0.2043	1.416	0.0019
288.15	0.3005	1.4224	0.0019
288.15	0.4005	1.43	0.0019
288.15	0.5023	1.4387	0.0019
288.15	0.6037	1.4485	0.0019
288.15	0.7035	1.4594	0.0019
288.15	0.8079	1.4727	0.0019
288.15	0.9069	1.4872	0.0019
293.15	0.1145	1.409	0.0019
293.15	0.2043	1.4137	0.0019
293.15	0.3005	1.4201	0.0019
293.15	0.4005	1.4278	0.0019
293.15	0.5023	1.4366	0.0019
293.15	0.6037	1.4465	0.0019
293.15	0.7035	1.4576	0.0019
293.15	0.8079	1.471	0.0019
293.15	0.9069	1.4856	0.0019
298.15	0.1145	1.4062	0.0019
298.15	0.2043	1.411	0.0019
298.15	0.3005	1.4173	0.0019
298.15	0.4005	1.425	0.0019
298.15	0.5023	1.4338	0.0019
298.15	0.6037	1.4438	0.0019
298.15	0.7035	1.4549	0.0019
298.15	0.8079	1.4683	0.0019
298.15	0.9069	1.4829	0.0019
303.15	0.1145	1.4038	0.0019
303.15	0.2043	1.4088	0.0019
303.15	0.3005	1.4151	0.0019
303.15	0.4005	1.4228	0.0019
303.15	0.5023	1.4317	0.0019
303.15	0.6037	1.4418	0.0019
303.15	0.7035	1.4531	0.0019
303.15	0.8079	1.4666	0.0019
303.15	0.9069	1.4812	0.0019
308.15	0.1145	1.4009	0.0019
308.15	0.2043	1.4061	0.0019
308.15	0.3005	1.4125	0.0019
308.15	0.4005	1.4203	0.0019
308.15	0.5023	1.4293	0.0019
308.15	0.6037	1.4395	0.0019
308.15	0.7035	1.451	0.0019
308.15	0.8079	1.4647	0.0019
308.15	0.9069	1.4795	0.0019
313.15	0.1145	1.3988	0.0019
313.15	0.2043	1.4043	0.0019
313.15	0.3005	1.4107	0.0019
313.15	0.4005	1.4185	0.0019
313.15	0.5023	1.4275	0.0019
313.15	0.6037	1.4378	0.0019
313.15	0.7035	1.4495	0.0019
313.15	0.8079	1.4632	0.0019
313.15	0.9069	1.4779	0.0019
318.15	0.1145	1.3961	0.0019
318.15	0.2043	1.4017	0.0019
318.15	0.3005	1.4082	0.0019
318.15	0.4005	1.4161	0.0019
318.15	0.5023	1.4252	0.0019
318.15	0.6037	1.4356	0.0019
318.15	0.7035	1.4474	0.0019
318.15	0.8079	1.4613	0.0019
318.15	0.9069	1.4759	0.0019

System: benzene + triethylamine; phases: Liquid
Fixed: Pressure, kPa = 101
Property: Mass density, kg/m3 (Liquid); method: PYCNOM:UFactor:12
Temperature, K	Mole fraction of benzene	Mass density, kg/m3	uncertainty
278.15	0.1145	751.3	2.3
278.15	0.2043	759.4	2.3
278.15	0.3005	769.2	2.4
278.15	0.4005	780.6	2.4
278.15	0.5023	793.6	2.5
278.15	0.6037	808.1	2.5
278.15	0.7035	824.2	2.6
278.15	0.8079	843.9	2.7
278.15	0.9069	866.2	2.7
283.15	0.1145	747.4	2.2
283.15	0.2043	755.5	2.2
283.15	0.3005	765.4	2.2
283.15	0.4005	776.9	2.3
283.15	0.5023	790	2.3
283.15	0.6037	804.6	2.4
283.15	0.7035	821	2.4
283.15	0.8079	841	2.5
283.15	0.9069	863.5	2.6
288.15	0.1145	743.3	2
288.15	0.2043	751.5	2
288.15	0.3005	761.4	2.1
288.15	0.4005	772.9	2.1
288.15	0.5023	786	2.2
288.15	0.6037	800.7	2.2
288.15	0.7035	817.2	2.3
288.15	0.8079	837.4	2.4
288.15	0.9069	859.9	2.4
293.15	0.1145	738.4	1.9
293.15	0.2043	746.8	1.9
293.15	0.3005	756.7	1.9
293.15	0.4005	768.2	2
293.15	0.5023	781.4	2
293.15	0.6037	796.1	2.1
293.15	0.7035	812.7	2.1
293.15	0.8079	833.1	2.2
293.15	0.9069	855.6	2.3
298.15	0	723.4	1.9
298.15	0.1145	733.4	2
298.15	0.2043	741.8	2
298.15	0.3005	751.7	2
298.15	0.4005	763.1	2.1
298.15	0.5023	776.1	2.1
298.15	0.6037	790.7	2.2
298.15	0.7035	807.2	2.3
298.15	0.8079	827.4	2.3
298.15	0.9069	849.6	2.4
298.15	1	873.6	2.5
303.15	0	717.9	2.1
303.15	0.1145	728.2	2.1
303.15	0.2043	737	2.1
303.15	0.3005	747.1	2.2
303.15	0.4005	758.7	2.2
303.15	0.5023	772	2.3
303.15	0.6037	786.8	2.3
303.15	0.7035	803.6	2.4
303.15	0.8079	824.2	2.5
303.15	0.9069	846.8	2.5
303.15	1	870.8	2.6
308.15	0	712.9	2.2
308.15	0.1145	723.4	2.2
308.15	0.2043	732.3	2.2
308.15	0.3005	742.4	2.3
308.15	0.4005	754	2.3
308.15	0.5023	767.3	2.4
308.15	0.6037	782.1	2.4
308.15	0.7035	799	2.5
308.15	0.8079	819.6	2.6
308.15	0.9069	842.1	2.7
308.15	1	865.7	2.7
313.15	0	708.3	2.3
313.15	0.1145	718.9	2.3
313.15	0.2043	727.9	2.4
313.15	0.3005	738.1	2.4
313.15	0.4005	749.7	2.5
313.15	0.5023	762.9	2.5
313.15	0.6037	777.8	2.6
313.15	0.7035	794.7	2.6
313.15	0.8079	815.4	2.7
313.15	0.9069	837.8	2.8
313.15	1	861	2.9
318.15	0	701.6	2.4
318.15	0.1145	712.6	2.4
318.15	0.2043	721.7	2.5
318.15	0.3005	732.1	2.5
318.15	0.4005	743.9	2.6
318.15	0.5023	757.2	2.6
318.15	0.6037	772.3	2.7
318.15	0.7035	789.5	2.7
318.15	0.8079	810.5	2.8
318.15	0.9069	833.1	2.9
318.15	1	856.3	3
