Measured thermophysical data. Effect of Al2O3 Nanoparticles Additives on the Density, Saturated Vapor Pressure, Surface Tension and Viscosity of Isopropyl Alcohol
Source: Int. J. Thermophys., 2018, 10.1007/s10765-018-2361-8
Compound 1: propan-2-ol, C3H8O, InChI=1S/C3H8O/c1-3(2)4/h3-4H,1-2H3

System: propan-2-ol; phases: Liquid
Fixed: Pressure, kPa = 101.325
Property: Mass density, kg/m3 (Liquid); method: Pycnometric method
Temperature, K	Mass density, kg/m3	uncertainty
263.1	810.9	1.1
283.1	795.3	1
295.3	784.3	1
303.6	777.5	1
323.4	760.1	1.1
343.3	741	1.1

System: propan-2-ol; phases: Liquid, Gas
Property: Vapor or sublimation pressure, kPa (Liquid); method: Closed cell (Static) method
Temperature, K	Vapor or sublimation pressure, kPa	uncertainty
297.9	6.38	1
303.7	8.93	1.01
321.2	21.91	1.02
333.5	39.46	1.06
343.3	61.57	1.14
352.9	92.28	1.27
362.5	134.96	1.35

System: propan-2-ol; phases: Liquid, Gas
Property: Surface tension liquid-gas, N/m (Liquid); method: Capillary rise
Temperature, K	Surface tension liquid-gas, N/m	uncertainty
293.2	0.0214	0.0002
303.3	0.0206	0.0002
313.2	0.0198	0.0002
323.3	0.019	0.0002
333.2	0.0182	0.0002
343.3	0.0174	0.0002

System: propan-2-ol; phases: Liquid
Fixed: Pressure, kPa = 101.325
Property: Kinematic viscosity, m2/s (Liquid); method: Capillary tube (Ostwald; Ubbelohde) method
Temperature, K	Kinematic viscosity, m2/s	uncertainty
293.2	3.12e-06	6e-08
303.2	2.35e-06	5e-08
323.2	1.39e-06	5e-08
343.3	9e-07	5e-08
