Measured thermophysical data. Solid Liquid Equilibria for the CO2 + R23  and N2O + R23 Systems
Source: Int. J. Thermophys., 2010, 10.1007/s10765-008-0511-0
Compound 1: carbon dioxide, CO2, InChI=1S/CO2/c2-1-3, purity 99.99%
Compound 2: nitrous oxide, N2O, InChI=1S/N2O/c1-2-3, purity 99.99%
Compound 3: trifluoromethane, CHF3, InChI=1S/CHF3/c2-1(3)4/h1H, purity 99.6%

System: carbon dioxide; phases: Crystal, Liquid, Gas
Property: Triple point temperature, K (Crystal); method: Heating/Cooling curves
Triple point temperature, K	uncertainty
216.52	1

System: nitrous oxide; phases: Crystal, Liquid, Gas
Property: Triple point temperature, K (Crystal); method: Heating/Cooling curves
Triple point temperature, K	uncertainty
181.99	1

System: trifluoromethane; phases: Crystal, Liquid, Gas
Property: Triple point temperature, K (Crystal); method: Heating/Cooling curves
Triple point temperature, K	uncertainty
118.02	1

System: trifluoromethane + carbon dioxide; phases: Liquid, Crystal, Gas
Property: Triple point temperature, K (Liquid); method: Large-sample thermal analysis
Mole fraction of carbon dioxide	Triple point temperature, K	uncertainty
0.026	126.89	4
0.044	133.85	3.15
0.093	147.26	2.48
0.126	152.05	1.85
0.175	159.83	1.73
0.268	172.06	1.61
0.306	175.92	1.21
0.321	174.98	1.31
0.359	179.69	1.41
0.401	182.78	1.3
0.48	189.32	1.27
0.619	199.3	1.16
0.623	199.23	1.16
0.745	203.86	1.38
0.761	205.34	1.38
0.853	209.59	1.1
0.904	211.19	1.13
1	216.52	1.02

System: trifluoromethane + nitrous oxide; phases: Liquid, Crystal, Gas
Property: Triple point temperature, K (Liquid); method: Large-sample thermal analysis
Mole fraction of nitrous oxide	Triple point temperature, K	uncertainty
0.114	120.39	1.92
0.136	123.97	1.59
0.215	133	1.59
0.29	142.68	1.4
0.34	144.65	1.2
0.459	152.99	1.04
0.473	152.71	1.18
0.499	155.15	1.39
0.621	162.21	1.23
0.688	168.41	1.17
0.733	168.32	1.06
0.787	171	1.21
0.839	175.18	1.16
0.883	176.21	1.11
1	181.99	1.02

System: trifluoromethane + nitrous oxide; phases: Liquid, Crystal, Gas
Property: Triple point temperature, K (Liquid); method: Large-sample thermal analysis
Mole fraction of nitrous oxide	Triple point temperature, K	uncertainty
0	118.02	1.02
0.035	117.73	1.08
0.058	115.88	1.3
