Measured thermophysical data. Measurement and Prediction of the Thermal Conductivity of Tricyanomethanide- and Tetracyanoborate-Based Imidazolium Ionic Liquids
Source: Int. J. Thermophys., 2014, 10.1007/s10765-014-1617-1
Compound 1: 1-ethyl-3-methyl-1H-imidazolium tricyanomethanide, C10H11N5, InChI=1S/C6H11N2.C4N3/c1-3-8-5-4-7(2)6-8;5-1-4(2-6)3-7/h4-6H,3H2,1-2H3;/q+1;-1, purity 98%
Compound 2: 1-butyl-3-methylimidazolium tricyanomethane, C12H15N5, InChI=1S/C8H15N2.C4N3/c1-3-4-5-10-7-6-9(2)8-10;5-1-4(2-6)3-7/h6-8H,3-5H2,1-2H3;/q+1;-1, purity 98%
Compound 3: 1-butyl-3-methyl-1H-imidazolium tetracyanoborate, C12H15BN6, InChI=1S/C8H15N2.C4BN4/c1-3-4-5-10-7-6-9(2)8-10;6-1-5(2-7,3-8)4-9/h6-8H,3-5H2,1-2H3;/q+1;-1, purity 99%
Compound 4: 3-hexyl-1-methylimidazolium tricyanomethanide, C14H19N5, InChI=1S/C10H19N2.C4N3/c1-3-4-5-6-7-12-9-8-11(2)10-12;5-1-4(2-6)3-7/h8-10H,3-7H2,1-2H3;/q+1;-1, purity 98%
Compound 5: 1-methyl-3-octylimidazolium tricyanomethanide, C16H23N5, InChI=1S/C12H23N2.C4N3/c1-3-4-5-6-7-8-9-14-11-10-13(2)12-14;5-1-4(2-6)3-7/h10-12H,3-9H2,1-2H3;/q+1;-1, purity 98%
Compound 6: 1-methyl-3-octylimidazolium tetracyanoborate, C16H23BN6, InChI=1S/C12H23N2.C4BN4/c1-3-4-5-6-7-8-9-14-11-10-13(2)12-14;6-1-5(2-7,3-8)4-9/h10-12H,3-9H2,1-2H3;/q+1;-1, purity 99%
Compound 7: 3-decyl-1-methylimidazolium tricyanomethanide, C18H27N5, InChI=1S/C14H27N2.C4N3/c1-3-4-5-6-7-8-9-10-11-16-13-12-15(2)14-16;5-1-4(2-6)3-7/h12-14H,3-11H2,1-2H3;/q+1;-1, purity 98%
Compound 8: 1-decyl-3-methyl-1H-imidazolium tetracyanoborate, C18H27BN6, InChI=1S/C14H27N2.C4BN4/c1-3-4-5-6-7-8-9-10-11-16-13-12-15(2)14-16;6-1-5(2-7,3-8)4-9/h12-14H,3-11H2,1-2H3;/q+1;-1, purity 99%
Compound 9: 1-hexyl-3-methylimidazolium tetracyanoborate, C14H19BN6, InChI=1S/C10H19N2.C4BN4/c1-3-4-5-6-7-12-9-8-11(2)10-12;6-1-5(2-7,3-8)4-9/h8-10H,3-7H2,1-2H3;/q+1;-1

System: 1-ethyl-3-methyl-1H-imidazolium tricyanomethanide; phases: Liquid
Fixed: Pressure, kPa = 101.325
Property: Thermal conductivity, W/m/K (Liquid); method: Parallel plate method
Temperature, K	Thermal conductivity, W/m/K	uncertainty
283.15	0.1966	0.0066
293.15	0.1958	0.0066
303.15	0.1955	0.0066
313.15	0.1928	0.0065
323.15	0.1917	0.0064
333.15	0.1896	0.0064
343.15	0.1883	0.0063
353.15	0.1874	0.0063

System: 1-ethyl-3-methyl-1H-imidazolium tricyanomethanide; phases: Liquid
Fixed: Pressure, kPa = 101.325
Property: Mass density, kg/m3 (Liquid); method: Vibrating tube method
Temperature, K	Mass density, kg/m3	uncertainty
283.15	1091.96	1.03
288.15	1088.37	1.02
293.15	1084.8	1.01
298.15	1081.25	1.01
303.15	1077.71	1
308.15	1074.19	0.99
313.15	1070.69	0.98
318.15	1067.21	0.98
323.15	1063.74	0.97
328.15	1060.29	0.96
333.15	1056.86	0.95
338.15	1053.44	0.95
343.15	1050.04	0.94
348.15	1046.66	0.93
353.15	1043.28	0.93
358.15	1039.93	0.92
363.15	1036.58	0.91

System: 1-ethyl-3-methyl-1H-imidazolium tricyanomethanide; phases: Liquid
Fixed: Pressure, kPa = 101.325
Property: Refractive index (Na D-line) (Liquid); method: Standard Abbe refractometry
Temperature, K	Refractive index (Na D-line)	uncertainty
283.15	1.516	0.0007
293.15	1.5131	0.0007
303.15	1.5101	0.0007
313.15	1.5071	0.0007

System: 1-butyl-3-methylimidazolium tricyanomethane; phases: Liquid
Fixed: Pressure, kPa = 101.325
Property: Thermal conductivity, W/m/K (Liquid); method: Parallel plate method
Temperature, K	Thermal conductivity, W/m/K	uncertainty
283.15	0.1772	0.006
293.15	0.1773	0.006
303.15	0.1806	0.0061
313.15	0.1798	0.0061
323.15	0.1796	0.0061
333.15	0.1777	0.006
343.15	0.1765	0.006
353.15	0.1743	0.0059

System: 1-butyl-3-methylimidazolium tricyanomethane; phases: Liquid
Fixed: Pressure, kPa = 101.325
Property: Mass density, kg/m3 (Liquid); method: Vibrating tube method
Temperature, K	Mass density, kg/m3	uncertainty
283.15	1057.46	0.96
288.15	1054.04	0.95
293.15	1050.62	0.94
298.15	1047.23	0.93
303.15	1043.85	0.93
308.15	1040.48	0.92
313.15	1037.13	0.91
318.15	1033.79	0.91
323.15	1030.47	0.9
328.15	1027.17	0.89
333.15	1023.87	0.89
338.15	1020.6	0.88
343.15	1017.34	0.87
348.15	1014.08	0.87
353.15	1010.85	0.86
358.15	1007.63	0.85
363.15	1004.43	0.85

System: 1-butyl-3-methylimidazolium tricyanomethane; phases: Liquid
Fixed: Pressure, kPa = 101.325
Property: Refractive index (Na D-line) (Liquid); method: Standard Abbe refractometry
Temperature, K	Refractive index (Na D-line)	uncertainty
283.15	1.5127	0.0007
293.15	1.5102	0.0007
303.15	1.5071	0.0007
313.15	1.5038	0.0007

System: 1-butyl-3-methyl-1H-imidazolium tetracyanoborate; phases: Liquid
Fixed: Pressure, kPa = 101.325
Property: Thermal conductivity, W/m/K (Liquid); method: Parallel plate method
Temperature, K	Thermal conductivity, W/m/K	uncertainty
283.15	0.178	0.006
293.15	0.1791	0.006
303.15	0.1756	0.0059
313.15	0.1737	0.0058
323.15	0.1732	0.0058
333.15	0.1693	0.0057
343.15	0.1664	0.0056
353.15	0.1632	0.0055

System: 1-butyl-3-methyl-1H-imidazolium tetracyanoborate; phases: Liquid
Fixed: Pressure, kPa = 101.325
Property: Mass density, kg/m3 (Liquid); method: Vibrating tube method
Temperature, K	Mass density, kg/m3	uncertainty
283.15	1021.17	0.3
288.15	1017.37	0.3
293.15	1013.59	0.3
298.15	1009.83	0.3
303.15	1006.09	0.29
308.15	1002.37	0.29
313.15	998.67	0.29
318.15	995	0.29
323.15	991.34	0.29
328.15	987.71	0.29
333.15	984.09	0.29
338.15	980.5	0.29
343.15	976.92	0.29
348.15	973.37	0.29
353.15	969.82	0.29
358.15	966.3	0.29
363.15	962.8	0.28

System: 1-butyl-3-methyl-1H-imidazolium tetracyanoborate; phases: Liquid
Fixed: Pressure, kPa = 101.325
Property: Refractive index (Na D-line) (Liquid); method: Standard Abbe refractometry
Temperature, K	Refractive index (Na D-line)	uncertainty
283.15	1.4561	0.0006
293.15	1.4533	0.0006
303.15	1.45	0.0006
313.15	1.4473	0.0006

System: 3-hexyl-1-methylimidazolium tricyanomethanide; phases: Liquid
Fixed: Pressure, kPa = 101.325
Property: Thermal conductivity, W/m/K (Liquid); method: Parallel plate method
Temperature, K	Thermal conductivity, W/m/K	uncertainty
283.15	0.1817	0.0061
293.15	0.1815	0.0061
303.15	0.1831	0.0062
313.15	0.1817	0.0061
323.15	0.181	0.0061
333.15	0.1792	0.006
343.15	0.1774	0.006
353.15	0.1762	0.0059

System: 3-hexyl-1-methylimidazolium tricyanomethanide; phases: Liquid
Fixed: Pressure, kPa = 101.325
Property: Mass density, kg/m3 (Liquid); method: Vibrating tube method
Temperature, K	Mass density, kg/m3	uncertainty
283.15	1030.55	0.9
288.15	1027.22	0.89
293.15	1023.92	0.89
298.15	1020.62	0.88
303.15	1017.35	0.87
308.15	1014.08	0.87
313.15	1010.83	0.86
318.15	1007.58	0.85
323.15	1004.35	0.85
328.15	1001.14	0.84
333.15	997.93	0.84
338.15	994.74	0.83
343.15	991.57	0.83
348.15	988.4	0.82
353.15	985.24	0.82
358.15	982.11	0.82
363.15	978.98	0.81

System: 3-hexyl-1-methylimidazolium tricyanomethanide; phases: Liquid
Fixed: Pressure, kPa = 101.325
Property: Refractive index (Na D-line) (Liquid); method: Standard Abbe refractometry
Temperature, K	Refractive index (Na D-line)	uncertainty
283.15	1.5084	0.0007
293.15	1.5055	0.0007
303.15	1.5026	0.0007
313.15	1.4994	0.0007

System: 1-methyl-3-octylimidazolium tricyanomethanide; phases: Liquid
Fixed: Pressure, kPa = 101.325
Property: Thermal conductivity, W/m/K (Liquid); method: Parallel plate method
Temperature, K	Thermal conductivity, W/m/K	uncertainty
283.15	0.1717	0.0058
293.15	0.1689	0.0057
303.15	0.1675	0.0057
313.15	0.1685	0.0057
323.15	0.1678	0.0057
333.15	0.1655	0.0056
343.15	0.1642	0.0056
353.15	0.1639	0.0056

System: 1-methyl-3-octylimidazolium tricyanomethanide; phases: Liquid
Fixed: Pressure, kPa = 101.325
Property: Mass density, kg/m3 (Liquid); method: Vibrating tube method
Temperature, K	Mass density, kg/m3	uncertainty
283.15	1010.18	0.86
288.15	1006.97	0.85
293.15	1003.75	0.85
298.15	1000.54	0.84
303.15	997.34	0.83
308.15	994.15	0.83
313.15	990.97	0.83
318.15	987.8	0.82
323.15	984.65	0.82
328.15	981.5	0.82
333.15	978.37	0.81
338.15	975.25	0.81
343.15	972.14	0.8
348.15	969.05	0.8
353.15	965.97	0.8
358.15	962.89	0.79
363.15	959.82	0.79

System: 1-methyl-3-octylimidazolium tricyanomethanide; phases: Liquid
Fixed: Pressure, kPa = 101.325
Property: Refractive index (Na D-line) (Liquid); method: Standard Abbe refractometry
Temperature, K	Refractive index (Na D-line)	uncertainty
283.15	1.5048	0.0007
293.15	1.5021	0.0007
303.15	1.4993	0.0007
313.15	1.4964	0.0007

System: 1-methyl-3-octylimidazolium tetracyanoborate; phases: Liquid
Fixed: Pressure, kPa = 101.325
Property: Thermal conductivity, W/m/K (Liquid); method: Parallel plate method
Temperature, K	Thermal conductivity, W/m/K	uncertainty
283.15	0.1703	0.0057
293.15	0.1694	0.0057
303.15	0.1682	0.0056
313.15	0.1644	0.0055
323.15	0.1586	0.0053
333.15	0.1573	0.0053
343.15	0.1543	0.0052
353.15	0.1513	0.0051

System: 1-methyl-3-octylimidazolium tetracyanoborate; phases: Liquid
Fixed: Pressure, kPa = 101.325
Property: Mass density, kg/m3 (Liquid); method: Vibrating tube method
Temperature, K	Mass density, kg/m3	uncertainty
283.15	985.65	0.29
288.15	982.14	0.29
293.15	978.62	0.29
298.15	975.1	0.29
303.15	971.6	0.29
308.15	968.12	0.29
313.15	964.65	0.28
318.15	961.2	0.28
323.15	957.76	0.28
328.15	954.34	0.28
333.15	950.94	0.28
338.15	947.55	0.28
343.15	944.17	0.28
348.15	940.82	0.28
353.15	937.45	0.28
358.15	934.15	0.28
363.15	930.84	0.28

System: 1-methyl-3-octylimidazolium tetracyanoborate; phases: Liquid
Fixed: Pressure, kPa = 101.325
Property: Refractive index (Na D-line) (Liquid); method: Standard Abbe refractometry
Temperature, K	Refractive index (Na D-line)	uncertainty
283.15	1.4603	0.0006
293.15	1.457	0.0006
303.15	1.4541	0.0006
313.15	1.4509	0.0006

System: 3-decyl-1-methylimidazolium tricyanomethanide; phases: Liquid
Fixed: Pressure, kPa = 101.325
Property: Thermal conductivity, W/m/K (Liquid); method: Parallel plate method
Temperature, K	Thermal conductivity, W/m/K	uncertainty
283.15	0.168	0.0057
293.15	0.1694	0.0057
303.15	0.1674	0.0057
313.15	0.1676	0.0057
323.15	0.1673	0.0057
333.15	0.1646	0.0056
343.15	0.162	0.0055
353.15	0.1593	0.0054

System: 3-decyl-1-methylimidazolium tricyanomethanide; phases: Liquid
Fixed: Pressure, kPa = 101.325
Property: Mass density, kg/m3 (Liquid); method: Vibrating tube method
Temperature, K	Mass density, kg/m3	uncertainty
283.15	992.5	0.83
288.15	989.38	0.82
293.15	986.25	0.82
298.15	983.11	0.82
303.15	979.98	0.81
308.15	976.85	0.81
313.15	973.73	0.81
318.15	970.63	0.8
323.15	967.53	0.8
328.15	964.44	0.8
333.15	961.37	0.79
338.15	958.31	0.79
343.15	955.24	0.79
348.15	952.2	0.78
353.15	949.17	0.78
358.15	946.15	0.77
363.15	943.13	0.77

System: 3-decyl-1-methylimidazolium tricyanomethanide; phases: Liquid
Fixed: Pressure, kPa = 101.325
Property: Refractive index (Na D-line) (Liquid); method: Standard Abbe refractometry
Temperature, K	Refractive index (Na D-line)	uncertainty
283.15	1.5008	0.0007
293.15	1.4981	0.0007
303.15	1.495	0.0007
313.15	1.4918	0.0007

System: 1-decyl-3-methyl-1H-imidazolium tetracyanoborate; phases: Liquid
Fixed: Pressure, kPa = 101.325
Property: Thermal conductivity, W/m/K (Liquid); method: Parallel plate method
Temperature, K	Thermal conductivity, W/m/K	uncertainty
283.15	0.1665	0.0056
293.15	0.1673	0.0056
303.15	0.1667	0.0056
313.15	0.1646	0.0055
323.15	0.164	0.0055
333.15	0.1613	0.0054
343.15	0.16	0.0054
353.15	0.1586	0.0053

System: 1-decyl-3-methyl-1H-imidazolium tetracyanoborate; phases: Liquid
Fixed: Pressure, kPa = 101.325
Property: Mass density, kg/m3 (Liquid); method: Vibrating tube method
Temperature, K	Mass density, kg/m3	uncertainty
283.15	972.81	0.29
288.15	969.36	0.29
293.15	965.94	0.28
298.15	962.51	0.28
303.15	959.09	0.28
308.15	955.68	0.28
313.15	952.29	0.28
318.15	948.91	0.28
323.15	945.54	0.28
328.15	942.19	0.28
333.15	938.85	0.28
338.15	935.53	0.28
343.15	932.22	0.28
348.15	928.94	0.28
353.15	925.65	0.28
358.15	922.39	0.28
363.15	919.14	0.28

System: 1-decyl-3-methyl-1H-imidazolium tetracyanoborate; phases: Liquid
Fixed: Pressure, kPa = 101.325
Property: Refractive index (Na D-line) (Liquid); method: Standard Abbe refractometry
Temperature, K	Refractive index (Na D-line)	uncertainty
283.15	1.4612	0.0006
293.15	1.4584	0.0006
303.15	1.4552	0.0006
313.15	1.4522	0.0006

System: 1-hexyl-3-methylimidazolium tetracyanoborate; phases: Liquid
Fixed: Pressure, kPa = 101.325
Property: Thermal conductivity, W/m/K (Liquid); method: Parallel plate method
Temperature, K	Thermal conductivity, W/m/K	uncertainty
283.15	0.1762	0.0059
293.15	0.1752	0.0059
303.15	0.1741	0.0058
313.15	0.1714	0.0057
323.15	0.1722	0.0058
333.15	0.1697	0.0057
343.15	0.1677	0.0056
353.15	0.1656	0.0056
