Measured thermophysical data. Thermodynamic and Acoustic Properties of Mixtures of Dibromomethane + Heptane
Source: Int. J. Thermophys., 2011, 10.1007/s10765-010-0773-1
Compound 1: heptane, C7H16, InChI=1S/C7H16/c1-3-5-7-6-4-2/h3-7H2,1-2H3
Compound 2: dibromomethane, CH2Br2, InChI=1S/CH2Br2/c2-1-3/h1H2

System: heptane; phases: Liquid
Property: Refractive index (Na D-line) (Liquid); method: Standard Abbe refractometry
Temperature, K	Pressure, kPa	Refractive index (Na D-line)	uncertainty
298.15	101.325	1.538	0.0011

System: dibromomethane; phases: Liquid
Property: Refractive index (Na D-line) (Liquid); method: Standard Abbe refractometry
Temperature, K	Pressure, kPa	Refractive index (Na D-line)	uncertainty
298.15	101.325	1.3851	0.0011

System: dibromomethane + heptane; phases: Liquid
Fixed: Pressure, kPa = 101
Property: Speed of sound, m/s (Liquid); method: Pulse-echo method
Mole fraction of dibromomethane	Temperature, K	Speed of sound, m/s	uncertainty
0	292.87	1152.55	1.58
0	298.14	1129.65	1.57
0	303.12	1108.21	1.57
0	308.1	1086.83	1.57
0	313.27	1064.73	1.57
0.1062	292.89	1103.98	1.58
0.1062	298.16	1082.36	1.56
0.1062	303.13	1062.09	1.56
0.1062	308.12	1041.86	1.56
0.1062	313.29	1021	1.54
0.2032	292.89	1066.26	1.57
0.2032	298.15	1045.83	1.55
0.2032	303.13	1026.62	1.55
0.2032	308.1	1007.5	1.55
0.2032	313.28	987.55	1.54
0.304	292.89	1032.13	1.56
0.304	298.16	1012.68	1.55
0.304	303.13	994.46	1.54
0.304	308.12	976.3	1.54
0.304	313.3	957.58	1.53
0.405	292.9	1002.43	1.55
0.405	298.18	984.03	1.54
0.405	303.15	966.75	1.54
0.405	308.13	949.39	1.54
0.405	313.31	931.52	1.53
0.4998	292.9	979.49	1.54
0.4998	298.17	962	1.53
0.4998	303.15	945.56	1.53
0.4998	308.12	929.18	1.53
0.4998	313.31	912.23	1.52
0.6048	292.92	959.47	1.54
0.6048	298.19	942.98	1.53
0.6048	303.17	927.45	1.52
0.6048	308.14	911.94	1.52
0.6048	313.32	895.85	1.51
0.7043	292.91	946.92	1.53
0.7043	298.18	931.29	1.52
0.7043	303.15	916.56	1.52
0.7043	308.14	901.84	1.52
0.7043	313.31	886.55	1.51
0.8031	292.91	941.84	1.53
0.8031	298.17	926.99	1.52
0.8031	303.14	913	1.51
0.8031	308.13	899.01	1.51
0.8031	313.31	884.49	1.5
0.9019	292.88	946.13	1.53
0.9019	298.15	931.96	1.51
0.9019	303.13	918.63	1.51
0.9019	308.11	905.33	1.51
0.9019	313.28	891.54	1.5
1	292.87	960.63	1.52
1	298.15	947.15	1.51
1	303.11	934.52	1.51
1	308.1	921.89	1.51
1	313.27	908.83	1.51

System: dibromomethane + heptane; phases: Liquid
Fixed: Pressure, kPa = 101
Property: Mass density, kg/m3 (Liquid); method: Vibrating tube method
Mole fraction of dibromomethane	Temperature, K	Mass density, kg/m3	uncertainty
0	288.15	688.15	0.25
0	293.15	683.94	0.25
0	298.15	679.7	0.25
0	303.15	675.44	0.25
0	308.15	671.15	0.25
0	313.15	666.83	0.25
0	318.15	662.48	0.25
0.1019	288.15	779.65	0.27
0.1019	293.15	774.91	0.26
0.1019	298.15	770.15	0.26
0.1019	303.15	765.35	0.26
0.1019	308.15	760.52	0.26
0.1019	313.14	755.67	0.26
0.1019	318.15	750.77	0.26
0.1838	288.15	861.49	0.31
0.1838	293.15	856.29	0.31
0.1838	298.14	851.06	0.3
0.1838	303.15	845.79	0.3
0.1838	308.15	840.49	0.3
0.1838	313.15	835.16	0.3
0.1838	318.15	829.78	0.3
0.2536	288.15	937.65	0.37
0.2536	293.14	932.03	0.37
0.2536	298.14	926.36	0.37
0.2536	303.15	920.67	0.37
0.2536	308.15	914.94	0.37
0.2536	313.15	909.16	0.37
0.2536	318.15	903.35	0.36
0.3055	288.15	998.83	0.46
0.3055	293.15	992.87	0.45
0.3055	298.14	986.88	0.45
0.3055	303.15	980.85	0.45
0.3055	308.15	974.78	0.45
0.3055	313.15	968.68	0.45
0.3055	318.15	962.53	0.44
0.4064	288.15	1130.32	0.67
0.4064	293.14	1123.66	0.65
0.4064	298.15	1116.96	0.65
0.4064	303.15	1110.22	0.64
0.4064	308.15	1103.44	0.64
0.4064	313.15	1096.62	0.63
0.4064	318.15	1089.75	0.63
0.5029	288.15	1274.13	0.93
0.5029	293.15	1266.74	0.92
0.5029	298.15	1259.28	0.91
0.5029	303.15	1251.79	0.9
0.5029	308.15	1244.25	0.9
0.5029	313.14	1236.67	0.89
0.5029	318.15	1229.04	0.88
0.6023	288.15	1444.97	0.95
0.6023	293.14	1436.76	0.93
0.6023	298.14	1428.45	0.92
0.6023	303.14	1420.11	0.92
0.6023	308.15	1411.72	0.91
0.6023	313.15	1403.28	0.9
0.6023	318.15	1394.79	0.89
0.6525	288.15	1541.56	1
0.6525	293.15	1532.85	0.99
0.6525	298.15	1524.09	0.98
0.6525	303.15	1515.27	0.97
0.6525	308.15	1506.41	0.97
0.6525	313.14	1497.49	0.96
0.6525	318.15	1488.53	0.95
0.7016	288.15	1644.24	1.07
0.7016	293.14	1635.05	1.06
0.7016	298.14	1625.79	1.05
0.7016	303.15	1616.48	1.04
0.7016	308.15	1607.12	1.03
0.7016	313.15	1597.72	1.02
0.7016	318.15	1588.27	1.01
0.8003	288.15	1878.69	1.21
0.8003	293.15	1868.4	1.18
0.8003	298.15	1858.05	1.17
0.8003	303.15	1847.66	1.16
0.8003	308.15	1837.22	1.15
0.8003	313.15	1826.75	1.14
0.8003	318.15	1816.27	1.12
0.8961	288.15	2149.52	1.46
0.8961	293.15	2138.01	1.42
0.8961	298.14	2126.46	1.41
0.8961	303.15	2114.87	1.39
0.8961	308.15	2103.24	1.38
0.8961	313.15	2091.58	1.37
0.8961	318.15	2079.95	1.35
1	288.15	2509.06	1.87
1	293.15	2496.03	1.85
1	298.15	2482.97	1.83
1	303.15	2469.88	1.82
1	308.15	2456.76	1.8
1	313.15	2443.59	1.78
1	318.15	2430.37	1.76
