Measured thermophysical data. Low-Temperature Heat Capacities and Standard Molar  Enthalpy of Formation of Dichloro Bis(2-aminopyridine)  Zinc (II), ZnCl2(C5H6N2)2(s)
Source: Int. J. Thermophys., 2010, 10.1007/s10765-010-0887-5
Compound 1: zinc, Zn, InChI=1S/Zn
Compound 2: chlorine, Cl2, InChI=1S/Cl2/c1-2
Compound 3: hydrogen, H2, InChI=1S/H2/h1H
Compound 4: nitrogen, N2, InChI=1S/N2/c1-2
Compound 5: graphite, C
Compound 6: zinc chloride, Cl2Zn, InChI=1S/2ClH.Zn/h2*1H;/q;;+2/p-2
Compound 7: hydrogen chloride, ClH, InChI=1S/ClH/h1H
Compound 8: water, H2O, InChI=1S/H2O/h1H2
Compound 9: dichlorobis(2-aminopyridine)zinc, C10H12Cl2N4Zn, InChI=1S/2C5H6N2.2ClH.Zn/c2*6-5-3-1-2-4-7-5;;;/h2*1-4H,(H2,6,7);2*1H;/q;;;;+2/p-2

System: dichlorobis(2-aminopyridine)zinc; phases: Crystal
Property: Mass density, kg/m3 (Crystal); method: X-ray analysis
Temperature, K	Pressure, kPa	Mass density, kg/m3	uncertainty
298	101.325	1670	2

System: dichlorobis(2-aminopyridine)zinc; phases: Crystal
Fixed: Pressure, kPa = 101.325
Property: Molar heat capacity at constant pressure, J/K/mol (Crystal); method: Vacuum adiabatic calorimetry
Temperature, K	Molar heat capacity at constant pressure, J/K/mol	uncertainty
78.4298	182.315	12.765
81.6833	186.528	13.06
84.9369	190.634	13.348
88.5602	195.539	13.691
91.8878	199.708	13.982
95.2153	203.705	14.262
98.395	208.674	14.61
101.575	212.888	14.905
104.237	216.128	15.132
106.677	219.369	15.359
109.117	222.718	15.593
111.557	225.851	15.812
114.441	229.74	16.085
117.621	233.521	16.349
120.431	236.978	16.591
123.462	240.651	16.848
126.198	244.864	17.143
129.082	248.429	17.393
133.667	251.994	17.642
134.85	256.207	17.937
137.438	259.34	18.157
139.952	262.473	18.376
142.392	264.648	18.528
145.128	268.149	18.773
147.569	271.401	19.001
150.009	274.526	19.22
152.227	277.416	19.422
154.815	280.219	19.618
157.699	283.781	19.868
160.435	287.285	20.113
163.023	290.905	20.366
165.537	293.942	20.579
168.125	296.657	20.769
170.27	299.051	20.937
172.636	301.737	21.125
174.928	304.015	21.284
177.368	306.964	21.49
179.883	309.883	21.695
181.953	312.599	21.885
184.911	316.307	22.145
187.499	319.022	22.335
189.717	322.149	22.553
191.862	324.654	22.729
194.08	327.46	22.925
196.594	330.438	23.134
198.96	332.92	23.307
201.253	335.255	23.471
203.323	337.796	23.649
205.542	340.219	23.818
207.612	342.409	23.972
209.756	344.406	24.112
211.901	346.683	24.271
213.971	348.961	24.43
216.116	350.745	24.555
218.186	352.984	24.712
220.331	355.451	24.885
222.327	357.197	25.007
224.398	359.726	25.184
226.394	362.207	25.358
228.391	364.561	25.522
230.461	366.686	25.671
232.458	368.698	25.812
234.75	371.165	25.985
236.672	373.025	26.115
238.669	375.036	26.256
240.739	377.048	26.397
242.588	378.946	26.529
244.732	380.92	26.668
246.951	382.78	26.798
248.947	384.753	26.936
251.092	386.955	27.09
253.014	388.928	27.228
255.011	391.016	27.374
257.081	392.762	27.497
259.226	395.153	27.664
261.518	397.469	27.826
263.589	399.291	27.954
265.733	401.378	28.1
267.877	403.693	28.262
269.948	405.667	28.4
272.24	407.869	28.554
274.532	410.222	28.719
276.751	412.309	28.865
278.895	414.018	28.985
281.04	416.219	29.139
283.332	418.155	29.274
285.402	420.015	29.404
287.695	422.558	29.582
289.691	424.418	29.713
291.762	426.771	29.877
293.906	428.517	29.999
295.977	430.87	30.164
298.491	432.844	30.302
301.744	435.615	30.496
304.702	438.537	30.701
307.734	440.891	30.866
310.766	443.509	31.049
313.797	446.166	31.235
316.829	448.94	31.429
319.861	451.848	31.633
322.893	454.476	31.817
325.924	456.893	31.986
328.956	459.521	32.17
331.914	462.149	32.354
335.02	464.742	32.535
337.977	467.264	32.712
340.935	469.962	32.901
343.893	472.45	33.075
346.851	475.112	33.261
349.809	477.67	33.44
352.914	481.104	33.681
355.946	484.362	33.909
358.978	486.639	34.068
361.936	489.407	34.262
364.967	491.58	34.414
367.999	494.768	34.637
371	497.83	34.852
373.989	500.584	35.044
376.946	503.177	35.226
379.904	505.699	35.402
382.886	508.607	35.606
385.82	511.375	35.8
388.778	514.073	35.989
391.736	516.911	36.187
394.767	519.609	36.376
397.725	522.342	36.568

System: zinc chloride + hydrogen chloride + water; phases: Liquid
Property: Molar enthalpy of solution, kJ/mol (Liquid); method: ISOPERIBOL
Ratio of mass of solute to volume of solution, kg/m3 of zinc chloride	Temperature, K	Pressure, kPa	Solvent: Amount concentration (molarity), mol/dm3 of hydrogen chloride	Molar enthalpy of solution, kJ/mol	uncertainty
0.8156	298.15	101.3	0.2	-25.836	25.837

System: hydrogen chloride + water + dichlorobis(2-aminopyridine)zinc; phases: Liquid
Property: Molar enthalpy of solution, kJ/mol (Liquid); method: ISOPERIBOL
Ratio of mass of solute to volume of solution, kg/m3 of dichlorobis(2-aminopyridine)zinc	Temperature, K	Pressure, kPa	Solvent: Amount concentration (molarity), mol/dm3 of hydrogen chloride	Molar enthalpy of solution, kJ/mol	uncertainty
1.94	298.15	101.3	0.2	-4.693	0.127

Reaction: -1 zinc + -1 chlorine + 1 dichlorobis(2-aminopyridine)zinc + -6 hydrogen + -2 nitrogen + -10 graphite
Property: Molar enthalpy of reaction, kJ/mol
-400.52
