Measured thermophysical data. Measurements and Correlations of cis-1,3,3,3-Tetrafluoroprop-1-ene (R1234ze(Z)) Subcooled Liquid Density and Vapor-Phase PvT
Source: Int. J. Thermophys., 2014, 10.1007/s10765-014-1730-1
Compound 1: (Z)-1,3,3,3-tetrafluoro-1-propene, C3H2F4, InChI=1S/C3H2F4/c4-2-1-3(5,6)7/h1-2H/b2-1-, purity 99%

System: (Z)-1,3,3,3-tetrafluoro-1-propene; phases: Liquid
Property: Mass density, kg/m3 (Liquid); method: Vibrating tube method
Temperature, K	Pressure, kPa	Mass density, kg/m3	uncertainty
283.16	34026	1340.8	1.8
283.16	33010	1339	1.8
283.16	32001	1337.1	1.8
283.15	30988	1335.2	1.8
283.16	29981	1333.4	1.8
283.16	28981	1331.5	1.8
283.16	27969	1329.6	1.8
283.16	26964	1327.4	1.8
283.16	25950	1325.4	1.8
283.16	24945	1323.4	1.8
283.16	23940	1321.4	1.8
283.16	22938	1319.3	1.8
283.16	21929	1317.3	1.8
283.16	20928	1315.1	1.8
283.15	19923	1312.8	1.7
283.16	18920	1310.8	1.7
283.16	17911	1308.5	1.7
283.16	16901	1306.2	1.7
283.16	15887	1304	1.7
283.16	14880	1301.5	1.7
283.16	13869	1299.3	1.7
283.16	12862	1296.7	1.7
283.16	11848	1294.3	1.7
283.16	10842	1291.8	1.7
283.16	9831	1289.3	1.7
283.16	8829	1286.8	1.7
283.16	7810	1284.1	1.7
283.16	6808	1281.4	1.7
283.16	5794	1278.6	1.7
283.16	4785	1275.9	1.7
283.16	3759	1273	1.7
283.16	2742	1270	1.7
283.16	1728	1266.9	1.7
283.16	714	1263.9	1.7
283.16	188	1262.2	1.7
333.16	34003	1245.5	1.8
333.16	32999	1243	1.7
333.15	31993	1240.4	1.7
333.15	30992	1237.9	1.7
333.16	29987	1235.2	1.7
333.16	28983	1232.6	1.7
333.16	27976	1229.9	1.7
333.16	26975	1227.2	1.7
333.16	25970	1224.4	1.7
333.16	24963	1221.5	1.7
333.16	23957	1218.6	1.7
333.17	22950	1215.6	1.7
333.16	21937	1212.6	1.7
333.16	20935	1209.5	1.7
333.16	19925	1206.3	1.7
333.16	18911	1203	1.7
333.16	17896	1199.7	1.7
333.16	16881	1196.2	1.7
333.16	15876	1192.7	1.7
333.17	14875	1189.1	1.7
333.16	13868	1185.4	1.7
333.16	12859	1181.6	1.7
333.16	11848	1177.7	1.7
333.16	10837	1173.6	1.7
333.16	9828	1169.5	1.7
333.16	8825	1165.2	1.7
333.16	7816	1160.8	1.7
333.16	6804	1156.2	1.7
333.16	5795	1151.4	1.7
333.16	4787	1146.4	1.7
333.16	3769	1141.2	1.7
333.17	2756	1135.8	1.7
333.17	1756	1130.2	1.7
333.17	754	1124.2	1.7
333.17	574	1123.1	1.7
293.15	33996	1321.6	1.8
293.15	32993	1319.5	1.8
293.14	31982	1317.6	1.8
293.15	30977	1315.7	1.8
293.15	29972	1313.7	1.8
293.15	28963	1311.6	1.8
293.15	27957	1309.7	1.8
293.15	26941	1307.2	1.8
293.15	25932	1305.2	1.8
293.14	24927	1303.2	1.8
293.14	23918	1301	1.8
293.14	22907	1298.7	1.8
293.14	21891	1296.5	1.7
293.15	20882	1294.3	1.7
293.15	19873	1292	1.7
293.15	18869	1289.6	1.7
293.15	17859	1287	1.7
293.15	16856	1284.7	1.7
293.15	15856	1282.1	1.7
293.15	14850	1279.6	1.7
293.15	13836	1277	1.7
293.15	12827	1274.3	1.7
293.15	11817	1271.7	1.7
293.15	10808	1269.1	1.7
293.15	9806	1266.1	1.7
293.14	8789	1263.5	1.7
293.15	7789	1260.4	1.7
293.14	6783	1257.5	1.7
293.15	5777	1254.5	1.7
293.15	4772	1251.4	1.7
293.14	3747	1248.2	1.7
293.15	2717	1244.8	1.7
293.15	1711	1241.3	1.7
293.14	707	1238	1.7
293.15	202	1236.1	1.7
343.14	34007	1226.7	1.7
343.15	33006	1224.1	1.7
343.14	32004	1221.4	1.7
343.14	30998	1218.7	1.7
343.14	29990	1215.8	1.7
343.14	28983	1212.9	1.7
343.14	27977	1210	1.7
343.14	26970	1207.1	1.7
343.14	25963	1204	1.7
343.14	24955	1201	1.7
343.15	23946	1197.8	1.7
343.14	22943	1194.6	1.7
343.14	21941	1191.3	1.7
343.14	20931	1187.8	1.7
343.14	19929	1184.4	1.7
343.14	18924	1180.9	1.7
343.14	17921	1177.2	1.7
343.14	16918	1173.5	1.7
343.14	15909	1169.7	1.7
343.14	14898	1165.7	1.7
343.14	13894	1161.7	1.7
343.14	12884	1157.5	1.7
343.14	11874	1153.1	1.7
343.14	10867	1148.6	1.7
343.14	9856	1144	1.7
343.14	8850	1139.2	1.7
343.14	7846	1134.2	1.7
343.14	6839	1129	1.7
343.14	5833	1123.5	1.7
343.14	4828	1117.9	1.7
343.14	3798	1111.8	1.7
343.14	2771	1105.3	1.7
343.14	1766	1098.6	1.7
343.14	761	1091.4	1.7
343.14	680	1090.7	1.7
303.15	34000	1302.7	1.8
303.15	32995	1300.6	1.8
303.15	31993	1298.6	1.8
303.15	30991	1296.4	1.8
303.15	29985	1294.3	1.8
303.15	28968	1292.1	1.8
303.15	27967	1289.9	1.8
303.15	26951	1287.7	1.8
303.15	25951	1285.4	1.8
303.15	24935	1283	1.7
303.15	23920	1280.7	1.7
303.15	22911	1278.3	1.7
303.15	21903	1275.9	1.7
303.15	20888	1273.4	1.7
303.15	19882	1270.9	1.7
303.15	18870	1268.3	1.7
303.15	17858	1265.7	1.7
303.15	16844	1263	1.7
303.15	15833	1260.3	1.7
303.15	14822	1257.6	1.7
303.15	13813	1254.8	1.7
303.15	12803	1251.9	1.7
303.16	11794	1249	1.7
303.15	10782	1245.9	1.7
303.16	9780	1242.9	1.7
303.15	8779	1239.7	1.7
303.15	7774	1236.5	1.7
303.16	6772	1233.2	1.7
303.16	5769	1229.9	1.7
303.15	4759	1226.3	1.7
303.15	3735	1222.8	1.7
303.16	2712	1219.1	1.7
303.15	1705	1215.3	1.7
303.16	692	1211.4	1.7
303.16	217	1209.4	1.7
353.14	33995	1208	1.7
353.15	32988	1205.2	1.7
353.15	31977	1202.3	1.7
353.15	30974	1199.3	1.7
353.15	29961	1196.3	1.7
353.15	28958	1193.2	1.7
353.15	27955	1190.1	1.7
353.15	26948	1186.9	1.7
353.15	25940	1183.7	1.7
353.15	24928	1180.3	1.7
353.16	23917	1176.9	1.7
353.15	22916	1173.4	1.7
353.16	21904	1169.8	1.7
353.15	20899	1166.1	1.7
353.15	19886	1162.3	1.7
353.15	18882	1158.4	1.7
353.16	17868	1154.4	1.7
353.15	16854	1150.3	1.7
353.15	15847	1146.1	1.7
353.15	14840	1141.7	1.7
353.16	13828	1137.2	1.7
353.16	12819	1132.5	1.7
353.16	11809	1127.7	1.7
353.16	10798	1122.6	1.7
353.16	9787	1117.4	1.7
353.16	8771	1111.9	1.7
353.16	7770	1106.2	1.7
353.16	6761	1100.2	1.7
353.16	5750	1093.9	1.7
353.16	4742	1087.3	1.7
353.15	3719	1080.1	1.7
353.16	2698	1072.4	1.7
353.16	1696	1064.4	1.7
353.16	926	1057.5	1.7
313.15	34000	1283.8	1.8
313.15	32992	1281.6	1.8
313.15	31986	1279.3	1.8
313.15	30978	1277	1.8
313.15	29976	1274.8	1.8
313.15	28969	1272.5	1.8
313.15	27968	1270.1	1.8
313.15	26966	1267.7	1.7
313.15	25963	1265.3	1.7
313.15	24962	1262.9	1.7
313.15	23961	1260.4	1.7
313.15	22953	1257.8	1.7
313.15	21945	1255.1	1.7
313.15	20940	1252.5	1.7
313.15	19934	1249.8	1.7
313.15	18933	1247	1.7
313.15	17931	1244.2	1.7
313.15	16925	1241.4	1.7
313.15	15924	1238.4	1.7
313.15	14924	1235.4	1.7
313.15	13913	1232.4	1.7
313.15	12909	1229.2	1.7
313.15	11896	1226	1.7
313.15	10884	1222.7	1.7
313.15	9876	1219.3	1.7
313.15	8867	1215.8	1.7
313.15	7865	1212.3	1.7
313.15	6862	1208.7	1.7
313.15	5847	1204.9	1.7
313.15	4846	1201.1	1.7
313.15	3819	1196.9	1.7
313.15	2791	1192.7	1.7
313.15	1789	1188.5	1.7
313.15	777	1184	1.7
313.15	325	1182	1.7
363.15	34010	1188.4	1.7
363.15	33009	1185.4	1.7
363.14	31998	1182.3	1.7
363.15	30992	1179.1	1.7
363.14	29991	1175.9	1.7
363.15	28984	1172.6	1.7
363.14	27982	1169.3	1.7
363.14	26975	1165.8	1.7
363.14	25973	1162.3	1.7
363.15	24969	1158.7	1.7
363.14	23961	1155	1.7
363.14	22956	1151.2	1.7
363.14	21954	1147.4	1.7
363.14	20949	1143.4	1.7
363.14	19943	1139.3	1.7
363.14	18936	1135	1.7
363.14	17931	1130.7	1.7
363.14	16917	1126.2	1.7
363.14	15912	1121.5	1.7
363.13	14901	1116.7	1.7
363.14	13892	1111.7	1.7
363.14	12892	1106.5	1.7
363.14	11879	1101.1	1.7
363.14	10872	1095.5	1.7
363.14	9860	1089.5	1.7
363.14	8855	1083.4	1.7
363.14	7849	1076.9	1.7
363.14	6835	1070	1.7
363.14	5830	1062.7	1.7
363.14	4829	1055	1.7
363.14	3803	1046.4	1.7
363.14	2776	1037.2	1.7
363.14	1771	1027.2	1.7
363.14	1456	1023.9	1.7
323.15	33992	1264.5	1.8
323.15	32979	1262.2	1.8
323.15	31966	1259.8	1.8
323.14	30956	1257.3	1.8
323.14	29946	1254.9	1.7
323.15	28945	1252.4	1.7
323.15	27933	1249.8	1.7
323.15	26926	1247.3	1.7
323.15	25914	1244.6	1.7
323.15	24908	1242	1.7
323.15	23908	1239.3	1.7
323.15	22900	1236.5	1.7
323.14	21889	1233.7	1.7
323.15	20875	1230.8	1.7
323.15	19866	1227.9	1.7
323.15	18857	1224.9	1.7
323.15	17849	1221.7	1.7
323.14	16843	1218.6	1.7
323.15	15831	1215.4	1.7
323.15	14822	1212.1	1.7
323.15	13812	1208.8	1.7
323.15	12805	1205.3	1.7
323.15	11803	1201.8	1.7
323.15	10796	1198.2	1.7
323.15	9791	1194.4	1.7
323.15	8786	1190.6	1.7
323.15	7786	1186.7	1.7
323.15	6786	1182.7	1.7
323.15	5778	1178.4	1.7
323.14	4763	1174.1	1.7
323.15	3731	1169.5	1.7
323.15	2712	1164.7	1.7
323.15	1702	1159.8	1.7
323.15	686	1154.6	1.7
323.15	392	1153.1	1.7

System: (Z)-1,3,3,3-tetrafluoro-1-propene; phases: Gas
Property: Specific volume, m3/kg (Gas); method: Vibrating tube method
Temperature, K	Pressure, kPa	Specific volume, m3/kg	uncertainty
303.15	82.1	0.259	0.005
308.15	83.4	0.259	0.005
313.15	84.9	0.259	0.005
318.15	86.3	0.26	0.005
323.15	87.8	0.26	0.005
328.15	89.2	0.26	0.005
333.15	90.7	0.26	0.005
338.15	92.1	0.26	0.005
343.15	93.6	0.26	0.005
348.15	95	0.26	0.005
353.15	96.4	0.26	0.005
358.15	97.9	0.26	0.005
363.15	99.3	0.26	0.005
368.15	100.7	0.26	0.005
373.15	102.2	0.26	0.005
303.15	184.2	0.111	0.001
308.15	187.8	0.111	0.001
313.15	191.5	0.111	0.001
318.15	195.2	0.111	0.001
323.15	198.9	0.111	0.001
328.15	202.5	0.111	0.001
333.15	206.1	0.111	0.001
338.15	209.7	0.111	0.001
343.15	213.3	0.111	0.001
348.15	216.8	0.111	0.001
353.15	220.3	0.112	0.001
358.15	223.9	0.112	0.001
363.15	227.4	0.112	0.001
368.15	231	0.112	0.001
373.15	234.6	0.112	0.001
303.15	113.7	0.185	0.003
308.15	115.8	0.185	0.003
313.15	117.9	0.185	0.003
318.15	120	0.185	0.003
323.15	122.1	0.185	0.003
328.15	124.1	0.185	0.003
333.15	126.2	0.185	0.003
338.15	128.2	0.185	0.003
343.15	130.3	0.185	0.003
348.15	132.4	0.185	0.003
353.15	134.4	0.185	0.003
358.15	136.4	0.186	0.003
363.15	138.4	0.186	0.003
368.15	140.5	0.186	0.003
373.15	142.5	0.186	0.003
303.15	190.7	0.107	0.001
308.15	194.6	0.107	0.001
313.15	198.5	0.107	0.001
318.15	202.2	0.107	0.001
323.15	206	0.107	0.001
328.15	209.8	0.107	0.001
333.15	213.5	0.107	0.001
338.15	217.2	0.107	0.001
343.15	220.9	0.107	0.001
348.15	224.6	0.107	0.001
353.15	228.3	0.107	0.001
358.15	232	0.107	0.001
363.15	235.7	0.107	0.001
368.15	239.3	0.107	0.001
373.15	242.9	0.107	0.001
308.15	215.4	0.095	0.001
313.16	219.8	0.095	0.001
318.15	224	0.095	0.001
323.15	228.3	0.095	0.001
328.15	232.5	0.095	0.001
333.15	236.7	0.096	0.001
338.15	240.9	0.096	0.001
343.15	245.1	0.096	0.001
348.15	249.2	0.096	0.001
353.15	253.3	0.096	0.001
358.15	257.4	0.096	0.001
363.15	261.4	0.096	0.001
368.15	265.5	0.096	0.001
373.15	269.6	0.096	0.001
315.15	270.7	0.076	0.001
320.15	276.3	0.076	0.001
325.15	281.9	0.076	0.001
330.15	287.2	0.076	0.001
335.15	292.6	0.077	0.001
340.15	298	0.077	0.001
345.15	303.3	0.077	0.001
350.15	308.6	0.077	0.001
355.15	313.8	0.077	0.001
360.15	319.1	0.077	0.001
365.15	324.3	0.077	0.001
370.15	329.4	0.077	0.001
375.15	334.6	0.077	0.001
323.15	363.2	0.057	0.001
328.15	370.9	0.057	0.001
333.15	378.4	0.057	0.001
338.15	385.9	0.057	0.001
343.15	393.2	0.057	0.001
348.15	400.6	0.057	0.001
353.15	407.8	0.057	0.001
358.15	415	0.057	0.001
363.15	422.2	0.057	0.001
368.15	429.3	0.057	0.001
373.15	436.3	0.057	0.001
