Measured thermophysical data. PVT Relationships of Binary Mixtures of Indole with 2-Methylnaphthalene and Biphenyl at 333.15 K and Pressures up to 270 MPa
Source: Int. J. Thermophys., 2009, 10.1007/s10765-009-0625-z
Compound 1: 2-methylnaphthalene, C11H10, InChI=1S/C11H10/c1-9-6-7-10-4-2-3-5-11(10)8-9/h2-8H,1H3
Compound 2: biphenyl, C12H10, InChI=1S/C12H10/c1-3-7-11(8-4-1)12-9-5-2-6-10-12/h1-10H
Compound 3: benzene, C6H6, InChI=1S/C6H6/c1-2-4-6-5-3-1/h1-6H
Compound 4: 1H-indole, C8H7N, InChI=1S/C8H7N/c1-2-4-8-7(3-1)5-6-9-8/h1-6,9H

System: 2-methylnaphthalene; phases: Liquid
Property: Specific volume, m3/kg (Liquid); method: Constant-volume piezometry
Temperature, K	Pressure, kPa	Specific volume, m3/kg	uncertainty
303.15	100	0.0010014	9e-07
313.15	100	0.0010088	2e-07
323.15	100	0.0010168	1.2e-06
333.14	100	0.0010247	3e-07
333.15	100	0.0010247	3e-07
333.15	10000	0.0010183	3e-07
333.15	20000	0.0010123	4e-07
333.15	30000	0.0010069	4e-07
333.15	40000	0.0010013	5e-07
333.15	50000	0.0009961	5e-07
333.15	60000	0.0009915	6e-07
333.15	70000	0.0009868	7e-07
333.15	80000	0.0009826	7e-07
333.15	90000	0.0009784	8e-07
333.15	100000	0.0009749	9e-07
343.15	100	0.0010326	3e-07
343.15	10000	0.0010261	3e-07
343.15	20000	0.0010199	3e-07
343.15	30000	0.0010136	4e-07
343.15	40000	0.0010078	5e-07
343.15	50000	0.0010026	5e-07
343.15	60000	0.0009977	6e-07
343.15	70000	0.0009932	7e-07
343.15	80000	0.0009885	8e-07
343.15	90000	0.0009843	8e-07
343.15	100000	0.0009802	9e-07
343.15	110000	0.0009764	1e-06
343.15	120000	0.0009725	1e-06
343.15	130000	0.0009689	1.1e-06
343.15	140000	0.0009655	1.2e-06
353.15	100	0.0010406	3e-07

System: biphenyl; phases: Liquid
Property: Specific volume, m3/kg (Liquid); method: Constant-volume piezometry
Temperature, K	Pressure, kPa	Specific volume, m3/kg	uncertainty
333.15	100	0.0009985	2e-07
343.15	100	0.0010068	3e-07
353.15	100	0.0010152	3e-07
353.15	10000	0.0010084	3e-07
353.15	20000	0.0010018	4e-07
353.15	30000	0.0009956	4e-07
363.15	100	0.0010237	3e-07
363.16	100	0.0010237	3e-07
363.16	10000	0.0010164	3e-07
363.16	20000	0.0010096	4e-07
363.16	30000	0.0010031	4e-07
363.16	40000	0.000997	5e-07
363.16	50000	0.0009917	5e-07
363.16	60000	0.0009864	6e-07
363.16	70000	0.0009815	7e-07

System: benzene; phases: Liquid
Property: Specific volume, m3/kg (Liquid); method: Constant-volume piezometry
Temperature, K	Pressure, kPa	Specific volume, m3/kg	uncertainty
293.15	101.325	0.0011377	2e-07

System: 1H-indole; phases: Liquid
Property: Specific volume, m3/kg (Liquid); method: Constant-volume piezometry
Temperature, K	Pressure, kPa	Specific volume, m3/kg	uncertainty
323.15	100	0.0009295	2e-07
333.15	100	0.000936	3e-07
333.15	10000	0.0009315	3e-07
333.15	20000	0.0009273	3e-07
333.15	30000	0.0009228	4e-07
333.15	40000	0.0009192	4e-07
333.15	50000	0.0009157	5e-07
343.15	100	0.0009428	3e-07
343.15	10000	0.0009381	3e-07
343.15	20000	0.0009335	3e-07
343.15	30000	0.0009292	4e-07
343.15	40000	0.0009249	4e-07
343.15	50000	0.0009209	5e-07
343.15	60000	0.0009173	6e-07
343.15	70000	0.000914	6e-07
343.15	80000	0.0009103	7e-07
353.15	100	0.0009499	3e-07
353.15	10000	0.0009449	3e-07
353.15	20000	0.0009402	3e-07
353.15	30000	0.0009358	4e-07
353.15	40000	0.0009313	4e-07
353.15	50000	0.0009273	5e-07
353.15	60000	0.0009231	6e-07
353.15	70000	0.0009195	6e-07
353.15	80000	0.0009158	7e-07
353.15	90000	0.0009123	8e-07
353.15	100000	0.0009091	8e-07
353.15	110000	0.0009059	9e-07

System: 1H-indole; phases: Liquid
Fixed: Temperature, K = 333.15
Property: Specific volume, m3/kg (Liquid); method: Constant-volume piezometry
Pressure, kPa	Specific volume, m3/kg	uncertainty
100	0.000936	3e-07
10000	0.0009315	3e-07
20000	0.0009273	3e-07
30000	0.0009228	4e-07
40000	0.0009192	4e-07
50000	0.0009157	5e-07

System: 2-methylnaphthalene + 1H-indole; phases: Liquid
Fixed: Temperature, K = 333.15
Property: Specific volume, m3/kg (Liquid); method: Constant-volume piezometry
Pressure, kPa	Mole fraction of 1H-indole	Specific volume, m3/kg	uncertainty
100	0	0.0010247	3e-07
100	0.25	0.0010048	3e-07
100	0.5	0.0009836	3e-07
100	0.75	0.0009609	3e-07
100	1	0.000936	3e-07
10000	0	0.0010183	3e-07
10000	0.25	0.0009988	3e-07
10000	0.5	0.0009782	3e-07
10000	0.75	0.000956	3e-07
10000	1	0.0009315	3e-07
20000	0	0.0010123	4e-07
20000	0.25	0.000993	3e-07
20000	0.5	0.000973	3e-07
20000	0.75	0.0009513	3e-07
20000	1	0.0009273	3e-07
30000	0	0.0010069	4e-07
30000	0.25	0.0009876	4e-07
30000	0.5	0.0009679	4e-07
30000	0.75	0.0009467	4e-07
30000	1	0.0009228	4e-07
40000	0	0.0010013	5e-07
40000	0.25	0.0009824	5e-07
40000	0.5	0.0009633	4e-07
40000	0.75	0.0009422	4e-07
40000	1	0.0009192	4e-07
50000	0	0.0009961	5e-07
50000	0.25	0.0009776	5e-07
50000	0.5	0.0009586	5e-07
50000	0.75	0.0009379	5e-07
50000	1	0.0009157	5e-07
60000	0	0.0009915	6e-07
60000	0.25	0.0009732	6e-07
60000	0.5	0.0009544	6e-07
60000	0.75	0.0009341	6e-07
70000	0	0.0009868	7e-07
70000	0.25	0.0009685	6e-07
70000	0.5	0.0009504	6e-07
70000	0.75	0.0009304	6e-07
80000	0	0.0009826	7e-07
80000	0.25	0.0009645	7e-07
80000	0.5	0.0009464	7e-07
80000	0.75	0.0009267	7e-07
90000	0	0.0009784	8e-07
90000	0.25	0.0009607	8e-07
90000	0.5	0.0009427	8e-07
90000	0.75	0.0009233	8e-07
100000	0	0.0009749	9e-07
100000	0.25	0.0009569	9e-07
100000	0.5	0.0009391	8e-07
100000	0.75	0.0009198	8e-07
110000	0.25	0.0009533	9e-07
110000	0.5	0.0009358	9e-07
110000	0.75	0.0009167	9e-07
120000	0.25	0.0009497	1e-06
120000	0.5	0.0009325	1e-06
120000	0.75	0.0009134	1e-06
130000	0.25	0.0009464	1.1e-06
130000	0.5	0.0009292	1e-06
130000	0.75	0.0009104	1e-06
140000	0.25	0.0009432	1.1e-06
140000	0.5	0.0009262	1.1e-06
140000	0.75	0.0009077	1.1e-06
150000	0.25	0.00094	1.2e-06
150000	0.5	0.0009231	1.2e-06
150000	0.75	0.0009048	1.2e-06
160000	0.25	0.0009369	1.3e-06
160000	0.5	0.0009202	1.3e-06
160000	0.75	0.000902	1.2e-06
170000	0.25	0.000934	1.3e-06
170000	0.5	0.0009174	1.3e-06
180000	0.5	0.0009148	1.4e-06
190000	0.5	0.0009122	1.5e-06
200000	0.5	0.0009095	1.5e-06
210000	0.5	0.000907	1.6e-06
220000	0.5	0.0009047	1.6e-06
230000	0.5	0.0009023	1.7e-06
240000	0.5	0.0008999	1.8e-06
250000	0.5	0.0008977	1.8e-06
260000	0.5	0.0008956	1.9e-06
270000	0.5	0.0008934	2e-06

System: 2-methylnaphthalene + 1H-indole; phases: Liquid
Fixed: Pressure, kPa = 100
Property: Specific volume, m3/kg (Liquid); method: PIEZOM:UFactor:12
Temperature, K	Mole fraction of 1H-indole	Specific volume, m3/kg	uncertainty
293.15	0.25	0.0009744	7e-07
293.15	0.5	0.0009522	7e-07
303.15	0	0.0010014	9e-07
303.15	0.25	0.0009821	9e-07
303.15	0.5	0.0009621	9e-07
303.15	0.75	0.0009406	8e-07
313.15	0	0.0010088	1.1e-06
313.15	0.25	0.0009893	1e-06
313.15	0.5	0.0009692	1e-06
313.15	0.75	0.0009471	1e-06
323.15	0	0.0010168	1.2e-06
323.15	0.25	0.0009968	1.2e-06
323.15	0.5	0.0009765	1.2e-06
323.15	0.75	0.0009539	1.1e-06
323.15	1	0.0009295	1.1e-06
333.15	0	0.0010247	1.4e-06
333.15	0.25	0.0010048	1.3e-06
333.15	0.5	0.0009836	1.3e-06
333.15	0.75	0.0009609	1.3e-06
333.15	1	0.000936	1.2e-06
343.15	0	0.0010326	1.5e-06
343.15	0.25	0.0010126	1.5e-06
343.15	0.5	0.0009909	1.4e-06
343.15	0.75	0.0009674	1.4e-06
343.15	1	0.0009428	1.4e-06
353.15	0	0.0010406	1.7e-06
353.15	0.25	0.0010205	1.6e-06
353.15	0.5	0.0009983	1.6e-06
353.15	0.75	0.0009747	1.6e-06
353.15	1	0.0009499	1.5e-06

System: biphenyl + 1H-indole; phases: Liquid
Fixed: Temperature, K = 333.15
Property: Specific volume, m3/kg (Liquid); method: Constant-volume piezometry
Pressure, kPa	Mole fraction of 1H-indole	Specific volume, m3/kg	uncertainty
100	0	0.0009985	2e-07
100	0.25	0.0009848	3e-07
100	0.5	0.0009698	3e-07
100	0.75	0.0009538	3e-07
100	1	0.000936	3e-07
10000	0.25	0.0009792	3e-07
10000	0.5	0.0009648	3e-07
10000	0.75	0.0009488	3e-07
10000	1	0.0009315	3e-07
20000	0.25	0.0009737	3e-07
20000	0.5	0.0009601	3e-07
20000	0.75	0.0009442	3e-07
20000	1	0.0009273	3e-07
30000	0.5	0.0009553	4e-07
30000	0.75	0.0009399	4e-07
30000	1	0.0009228	4e-07
40000	0.5	0.0009507	4e-07
40000	0.75	0.0009356	4e-07
40000	1	0.0009192	4e-07
50000	0.5	0.0009464	5e-07
50000	0.75	0.0009316	5e-07
50000	1	0.0009157	5e-07
60000	0.5	0.0009423	6e-07
60000	0.75	0.0009278	5e-07
70000	0.5	0.0009384	6e-07
70000	0.75	0.0009241	6e-07
80000	0.5	0.0009347	7e-07
80000	0.75	0.0009205	7e-07
90000	0.75	0.0009171	8e-07
100000	0.75	0.0009139	8e-07
110000	0.75	0.0009108	9e-07
120000	0.75	0.0009077	1e-06
130000	0.75	0.0009047	1e-06
140000	0.75	0.000902	1.1e-06
150000	0.75	0.0008991	1.2e-06
160000	0.75	0.0008965	1.2e-06
170000	0.75	0.0008939	1.3e-06

System: biphenyl + 1H-indole; phases: Liquid
Fixed: Pressure, kPa = 100
Property: Specific volume, m3/kg (Liquid); method: PIEZOM:UFactor:8
Temperature, K	Mole fraction of 1H-indole	Specific volume, m3/kg	uncertainty
303.15	0.5	0.0009477	6e-07
303.15	0.75	0.0009328	6e-07
313.15	0.5	0.000955	7e-07
313.15	0.75	0.0009393	7e-07
323.15	0.25	0.0009769	8e-07
323.15	0.5	0.0009624	8e-07
323.15	0.75	0.0009462	7e-07
323.15	1	0.0009295	7e-07
333.15	0	0.0009985	9e-07
333.15	0.25	0.0009848	9e-07
333.15	0.5	0.0009698	9e-07
333.15	0.75	0.0009538	8e-07
333.15	1	0.000936	8e-07
343.15	0	0.0010068	1e-06
343.15	0.25	0.0009924	1e-06
343.15	0.5	0.000977	1e-06
343.15	0.75	0.0009599	9e-07
343.15	1	0.0009428	9e-07
353.15	0	0.0010152	1.1e-06
353.15	0.25	0.0010004	1.1e-06
353.15	0.5	0.0009848	1e-06
353.15	0.75	0.0009675	1e-06
353.15	1	0.0009499	1e-06
363.15	0	0.0010237	1.2e-06
363.15	0.25	0.0010086	1.2e-06
363.15	0.5	0.0009924	1.1e-06
363.15	0.75	0.0009747	1.1e-06
