Measured thermophysical data. Physicochemical Properties of CuSO4 + PEG 4000 + H2O Solutions at Different Temperatures
Source: Int. J. Thermophys., 2016, 10.1007/s10765-016-2089-2
Compound 1: copper sulfate, CuO4S, InChI=1S/Cu.H2O4S/c;1-5(2,3)4/h;(H2,1,2,3,4)/q+2;/p-2, purity 99%
Compound 2: water, H2O, InChI=1S/H2O/h1H2, purity 99.9%

System: copper sulfate + water; phases: Liquid
Fixed: Pressure, kPa = 100
Property: Electrical conductivity, S/m (Liquid); method: Alternating current cell with electrodes
Temperature, K	Mass fraction of copper sulfate	Electrical conductivity, S/m	uncertainty
288.15	0.0101	0.492	0.07338
288.15	0.0202	0.851	0.07343
288.15	0.0305	1.174	0.07347
288.15	0.0409	1.472	0.07351
288.15	0.0514	1.76	0.15032
288.15	0.0621	2.034	0.15036
288.15	0.0729	2.29	0.15044
288.15	0.0838	2.538	0.1505
288.15	0.0948	2.772	0.1506
293.15	0.0305	1.307	0.0735
293.15	0.0409	1.633	0.0736
293.15	0.0514	1.959	0.1504
293.15	0.0101	0.548	0.0735
293.15	0.0621	2.258	0.1504
293.15	0.0202	0.943	0.0735
293.15	0.0729	2.548	0.1505
293.15	0.0838	2.823	0.1506
293.15	0.0948	3.09	0.1507
298.15	0.0409	1.829	0.1503
298.15	0.0101	0.61	0.0736
298.15	0.0305	1.454	0.0736
298.15	0.0514	2.181	0.1504
298.15	0.0621	2.52	0.1504
298.15	0.0202	1.05	0.0736
298.15	0.0729	2.844	0.1505
298.15	0.0838	3.16	0.1506
298.15	0.0948	3.44	0.1507
308.15	0.0409	2.162	0.1503
303.15	0.0409	1.995	0.1503
308.15	0.0202	1.237	0.0737
308.15	0.0514	2.568	0.1504
303.15	0.0621	2.746	0.1504
303.15	0.0202	1.144	0.0737
308.15	0.0305	1.718	0.1503
303.15	0.0101	0.664	0.0736
308.15	0.0621	2.974	0.1504
308.15	0.0101	0.719	0.0737
303.15	0.0729	3.1	0.1505
303.15	0.0305	1.588	0.0737
308.15	0.0729	3.36	0.1505
303.15	0.0838	3.44	0.1506
303.15	0.0514	2.375	0.1504
308.15	0.0838	3.74	0.1506
303.15	0.0948	3.76	0.1507
308.15	0.0948	4.09	0.1507

System: copper sulfate + water; phases: Liquid
Fixed: Pressure, kPa = 100
Property: Viscosity, Pa*s (Liquid); method: Capillary tube (Ostwald; Ubbelohde) method
Temperature, K	Mass fraction of copper sulfate	Viscosity, Pa*s	uncertainty
308.15	0.0101	0.000758	4.8e-05
308.15	0.0202	0.0008	4.8e-05
303.15	0.0101	0.000835	4.8e-05
308.15	0.0305	0.000835	4.8e-05
308.15	0.0409	0.000857	4.8e-05
308.15	0.0514	0.000883	4.8e-05
303.15	0.0202	0.000892	4.8e-05
303.15	0.0305	0.000918	4.8e-05
298.15	0.0101	0.000937	4.8e-05
308.15	0.0621	0.000948	4.8e-05
303.15	0.0409	0.000952	4.8e-05
308.15	0.0729	0.00099	4.8e-05
298.15	0.0202	0.001001	4.8e-05
303.15	0.0514	0.001014	0.000111
298.15	0.0305	0.001018	0.000111
308.15	0.0838	0.001022	0.000111
303.15	0.0621	0.001029	0.000111
298.15	0.0409	0.001068	0.000111
293.15	0.0101	0.001083	0.000111
308.15	0.0948	0.001089	0.000111
303.15	0.0729	0.001098	0.000111
303.15	0.0838	0.001122	0.000111
298.15	0.0514	0.001123	0.000111
293.15	0.0202	0.001132	0.000111
298.15	0.0621	0.001142	0.000111
288.15	0.0101	0.001188	0.000111
293.15	0.0305	0.001191	0.000111
293.15	0.0409	0.001199	0.000111
303.15	0.0948	0.001203	0.000111
298.15	0.0729	0.001227	0.000111
288.15	0.0202	0.001263	0.000111
293.15	0.0514	0.001273	0.000111
298.15	0.0838	0.001288	0.000111
293.15	0.0621	0.00131	0.000111
288.15	0.0305	0.001344	0.000111
298.15	0.0948	0.00136	0.000111
288.15	0.0409	0.001371	0.000111
293.15	0.0729	0.001393	0.000111
288.15	0.0514	0.001404	0.000111
293.15	0.0838	0.001452	0.000111
288.15	0.0621	0.001472	0.000111
293.15	0.0948	0.001528	0.000111
288.15	0.0729	0.001591	0.000111
288.15	0.0838	0.001649	0.000111
288.15	0.0948	0.001744	0.000112

System: copper sulfate + water; phases: Liquid
Fixed: Pressure, kPa = 100
Property: Mass density, kg/m3 (Liquid); method: Vibrating tube method
Temperature, K	Mass fraction of copper sulfate	Mass density, kg/m3	uncertainty
308.15	0.0101	1004.32	0.33
303.15	0.0101	1005.98	0.33
298.15	0.0101	1007.43	0.33
293.15	0.0101	1008.63	0.33
288.15	0.0101	1009.6	0.33
308.15	0.0202	1014.65	0.33
303.15	0.0202	1016.35	0.33
298.15	0.0202	1017.84	0.33
293.15	0.0202	1019.09	0.33
288.15	0.0202	1019.98	0.33
308.15	0.0305	1024.97	0.33
303.15	0.0305	1026.77	0.33
298.15	0.0305	1028.06	0.33
293.15	0.0305	1029.38	0.33
288.15	0.0305	1030.49	0.33
308.15	0.0409	1035.64	0.33
303.15	0.0409	1037.41	0.33
298.15	0.0409	1039	0.33
293.15	0.0409	1040.53	0.34
288.15	0.0409	1041.68	0.33
308.15	0.0514	1046.35	0.33
303.15	0.0514	1048.04	0.33
298.15	0.0514	1049.67	0.33
293.15	0.0514	1051.49	0.33
288.15	0.0514	1052.54	0.33
308.15	0.0621	1057.16	0.33
303.15	0.0621	1058.96	0.34
298.15	0.0621	1060.66	0.34
293.15	0.0621	1062.26	0.33
288.15	0.0621	1063.7	0.34
308.15	0.0729	1068.13	0.34
303.15	0.0729	1070.1	0.34
298.15	0.0729	1071.85	0.34
293.15	0.0729	1073.67	0.34
288.15	0.0729	1074.95	0.34
308.15	0.0838	1078.76	0.34
303.15	0.0838	1081.38	0.34
298.15	0.0838	1083.16	0.34
293.15	0.0838	1084.84	0.34
288.15	0.0838	1086.38	0.34
308.15	0.0948	1091.27	0.35
303.15	0.0948	1092.64	0.34
298.15	0.0948	1094.5	0.34
293.15	0.0948	1096.44	0.34
288.15	0.0948	1098.22	0.34

System: copper sulfate + water; phases: Liquid
Fixed: Pressure, kPa = 100
Property: Refractive index (Na D-line) (Liquid); method: Standard Abbe refractometry
Temperature, K	Mass fraction of copper sulfate	Refractive index (Na D-line)	uncertainty
288.15	0.0101	1.3353	0.0004
288.15	0.0202	1.3372	0.0004
288.15	0.0305	1.3391	0.0004
288.15	0.0409	1.3411	0.0004
288.15	0.0514	1.3429	0.0004
288.15	0.0621	1.3449	0.0004
288.15	0.0729	1.3469	0.0004
288.15	0.0838	1.3488	0.0004
288.15	0.0948	1.3508	0.0004
293.15	0.0101	1.3348	0.0004
293.15	0.0202	1.3367	0.0004
293.15	0.0305	1.3384	0.0004
293.15	0.0409	1.3405	0.0004
293.15	0.0514	1.3424	0.0004
293.15	0.0621	1.3444	0.0004
293.15	0.0729	1.3463	0.0004
293.15	0.0838	1.3483	0.0004
293.15	0.0948	1.3504	0.0004
298.15	0.0101	1.3343	0.0004
298.15	0.0202	1.3362	0.0004
298.15	0.0305	1.3379	0.0004
298.15	0.0409	1.34	0.0004
298.15	0.0514	1.3418	0.0004
298.15	0.0621	1.3437	0.0004
298.15	0.0729	1.3456	0.0004
298.15	0.0838	1.3476	0.0004
298.15	0.0948	1.3495	0.0004
303.15	0.0101	1.3338	0.0004
303.15	0.0202	1.3356	0.0004
303.15	0.0305	1.3373	0.0004
303.15	0.0409	1.3392	0.0004
303.15	0.0514	1.3411	0.0004
303.15	0.0621	1.343	0.0004
303.15	0.0729	1.3449	0.0004
303.15	0.0838	1.3468	0.0004
303.15	0.0948	1.3488	0.0004
308.15	0.0101	1.3331	0.0004
308.15	0.0202	1.3349	0.0004
308.15	0.0305	1.3367	0.0004
308.15	0.0409	1.3387	0.0004
308.15	0.0514	1.3405	0.0004
308.15	0.0621	1.3426	0.0004
308.15	0.0729	1.3445	0.0004
308.15	0.0838	1.3463	0.0004
308.15	0.0948	1.3481	0.0004
