Measured thermophysical data. Measurements and Correlations of cis-1,3,3,3-Tetrafluoroprop-1-ene (R1234ze(Z)) Saturation Pressure
Source: Int. J. Thermophys., 2014, 10.1007/s10765-013-1553-5
Compound 1: (Z)-1,3,3,3-tetrafluoro-1-propene, C3H2F4, InChI=1S/C3H2F4/c4-2-1-3(5,6)7/h1-2H/b2-1-, purity 99%

System: (Z)-1,3,3,3-tetrafluoro-1-propene; phases: Liquid, Gas
Property: Vapor or sublimation pressure, kPa (Liquid); method: Closed cell (Static) method
Temperature, K	Vapor or sublimation pressure, kPa	uncertainty
283.15	103	2
285.15	111	2
287.15	120	2
289.15	129	2
291.15	139	2
293.15	149	2
295.15	160	2
297.15	172	2
299.15	184	2
301.15	198	2
303.15	211	2
305.15	225	2
307.15	241	2
309.15	256	2
311.15	273	2
313.15	291	2
315.15	309	2
317.15	329	2
319.15	349	2
321.14	370	2
323.15	392	2
325.15	415	2
327.15	439	2
329.15	465	2
331.15	491	2
333.15	519	2
335.15	548	2
337.15	578	2
339.15	609	3
341.15	641	3
343.15	675	3
345.15	710	3
347.16	746	3
349.15	784	3
351.15	823	3
353.16	863	3
238.13	12	2
243.1	16	2
248	21	2
252.9	27	2
257.81	34	2
263.02	44	2
267.91	55	2
272.83	68	2
277.94	85	2
282.78	102	2
287.62	123	2
292.62	148	2
298	178	2
303.18	212	2
308.18	249	2
313.17	291	2
318.14	338	2
323.14	392	2
328.12	451	2
333.11	518	2
338.12	591	2
343.07	672	3
348.16	764	3
353.12	861	3
358.13	969	3
363.14	1086	3
368.09	1212	3
372.61	1336	4
