Measured thermophysical data. Densities and Excess, Apparent, and Partial Molar Volumes of Binary Mixtures of BMIMBF4 + Ethanol as a Function of Temperature, Pressure, and Concentration
Source: Int. J. Thermophys., 2008, 10.1007/s10765-008-0410-4
Compound 1: 1-butyl-3-methylimidazolium tetrafluoroborate, C8H15BF4N2, InChI=1S/C8H15N2.BF4/c1-3-4-5-10-7-6-9(2)8-10;2-1(3,4)5/h6-8H,3-5H2,1-2H3;/q+1;-1
Compound 2: ethanol, C2H6O, InChI=1S/C2H6O/c1-2-3/h3H,2H2,1H3, purity 99.99%

System: 1-butyl-3-methylimidazolium tetrafluoroborate; phases: Liquid
Property: Mass density, kg/m3 (Liquid); method: Vibrating tube method
Temperature, K	Pressure, kPa	Mass density, kg/m3	uncertainty
298.15	280	1211.19	1.3
298.15	5640	1213.63	1.35
298.15	10620	1215.85	1.4
298.15	15340	1217.77	1.44
298.15	20640	1220.29	1.49
298.15	25270	1222.18	1.54
298.15	30050	1223.93	1.59
298.15	35410	1226.07	1.64
298.15	39610	1227.81	1.68
323.15	730	1192.89	1.26
323.15	5640	1195.3	1.3
323.15	10610	1197.71	1.35
323.15	15440	1200.01	1.39
323.15	20460	1202.37	1.44
323.15	25360	1204.64	1.48
323.15	30740	1207.09	1.53
323.15	35650	1209.29	1.58
323.15	39850	1211.14	1.62
348.15	210	1174.44	1.21
348.15	5960	1177.75	1.26
348.15	10480	1180.3	1.3
348.15	15430	1182.72	1.34
348.15	20870	1185.63	1.39
348.15	25850	1188.16	1.43
348.15	30110	1190.19	1.47
348.15	35110	1192.88	1.52
348.15	39610	1194.77	1.56
373.15	470	1157.24	1.18
373.15	5350	1160.25	1.21
373.15	10080	1163.09	1.25
373.15	15710	1166.39	1.29
373.15	20970	1169.38	1.34
373.15	25820	1172.07	1.38
373.15	30120	1174.39	1.41
373.15	35530	1177.22	1.46
373.15	39820	1179.41	1.5
398.15	870	1141.05	1.14
398.15	6670	1144.53	1.18
398.15	10490	1147.07	1.21
398.15	15730	1150.32	1.25
398.15	20980	1153.78	1.29
398.15	25140	1156.3	1.32
398.15	30890	1159.52	1.37
398.15	35810	1162.4	1.41
398.15	39560	1164.38	1.44

System: ethanol + 1-butyl-3-methylimidazolium tetrafluoroborate; phases: Liquid
Property: Mass density, kg/m3 (Liquid); method: Vibrating tube method
Temperature, K	Mole fraction of 1-butyl-3-methylimidazolium tetrafluoroborate	Pressure, kPa	Mass density, kg/m3	uncertainty
298.15	0.0701	390	875.91	0.14
298.15	0.0701	5500	880.04	0.16
298.15	0.0701	11370	884.58	0.17
298.15	0.0701	15130	887.37	0.18
298.15	0.0701	21070	891.6	0.19
298.15	0.0701	25570	894.66	0.2
298.15	0.0701	30620	897.94	0.22
298.15	0.0701	35860	901.17	0.23
298.15	0.0701	39340	903.23	0.23
298.15	0.3147	340	1044.49	0.17
298.15	0.3147	5630	1048.05	0.18
298.15	0.3147	10910	1051.47	0.19
298.15	0.3147	15280	1054.2	0.19
298.15	0.3147	20540	1057.36	0.21
298.15	0.3147	25470	1060.21	0.22
298.15	0.3147	31120	1063.34	0.23
298.15	0.3147	35800	1065.82	0.24
298.15	0.3147	39770	1067.84	0.26
298.15	0.5384	210	1124.67	0.37
298.15	0.5384	5040	1127.45	0.4
298.15	0.5384	10260	1130.36	0.43
298.15	0.5384	15320	1133.1	0.46
298.15	0.5384	20090	1135.59	0.49
298.15	0.5384	26070	1138.61	0.53
298.15	0.5384	30070	1140.56	0.55
298.15	0.5384	35410	1143.07	0.59
298.15	0.5384	39980	1145.14	0.62
298.15	0.7452	180	1171.71	0.71
298.15	0.7452	4960	1174.16	0.75
298.15	0.7452	10060	1176.71	0.78
298.15	0.7452	15210	1179.21	0.82
298.15	0.7452	20360	1181.64	0.87
298.15	0.7452	25410	1183.95	0.91
298.15	0.7452	30090	1186.03	0.95
298.15	0.7452	35480	1188.36	0.99
298.15	0.7452	39920	1190.22	1.03
298.15	0.9152	120	1199.7	1.08
298.15	0.9152	5140	1202.06	1.12
298.15	0.9152	10030	1204.31	1.17
298.15	0.9152	15620	1206.82	1.22
298.15	0.9152	20480	1208.95	1.26
298.15	0.9152	26140	1211.36	1.32
298.15	0.9152	29870	1212.91	1.35
298.15	0.9152	35740	1215.3	1.41
298.15	0.9152	39980	1216.97	1.45
298.15	1	280	1211.19	1.3
298.15	1	5640	1213.63	1.35
298.15	1	10620	1215.85	1.4
298.15	1	15340	1217.77	1.44
298.15	1	20640	1220.29	1.49
298.15	1	25270	1222.18	1.54
298.15	1	30050	1223.93	1.59
298.15	1	35410	1226.07	1.64
298.15	1	39610	1227.81	1.68
323.15	0.0701	290	856.52	0.15
323.15	0.0701	5410	861.09	0.16
323.15	0.0701	10730	865.61	0.18
323.15	0.0701	15430	869.4	0.19
323.15	0.0701	20330	873.16	0.21
323.15	0.0701	25380	876.83	0.22
323.15	0.0701	30330	880.21	0.24
323.15	0.0701	34740	883.06	0.25
323.15	0.0701	40010	886.25	0.26
323.15	0.3147	340	1026.83	0.16
323.15	0.3147	5010	1030.15	0.17
323.15	0.3147	10110	1033.63	0.17
323.15	0.3147	15410	1037.07	0.18
323.15	0.3147	20750	1040.38	0.19
323.15	0.3147	26290	1043.62	0.2
323.15	0.3147	30640	1046.04	0.21
323.15	0.3147	35260	1048.48	0.22
323.15	0.3147	40120	1050.91	0.23
323.15	0.5384	850	1106.94	0.36
323.15	0.5384	4890	1109.43	0.38
323.15	0.5384	9860	1112.4	0.41
323.15	0.5384	14870	1115.29	0.43
323.15	0.5384	20160	1118.22	0.46
323.15	0.5384	25840	1121.23	0.49
323.15	0.5384	30260	1123.49	0.52
323.15	0.5384	35420	1126.01	0.55
323.15	0.5384	40020	1128.17	0.57
323.15	0.7452	420	1153.47	0.69
323.15	0.7452	5060	1156.05	0.72
323.15	0.7452	10740	1159.11	0.76
323.15	0.7452	15080	1161.39	0.79
323.15	0.7452	20310	1164.06	0.83
323.15	0.7452	25120	1166.45	0.86
323.15	0.7452	30080	1168.84	0.9
323.15	0.7452	35070	1171.16	0.94
323.15	0.7452	40010	1173.4	0.98
323.15	0.9152	510	1181.35	1.05
323.15	0.9152	4870	1183.6	1.08
323.15	0.9152	10080	1186.23	1.12
323.15	0.9152	15210	1188.77	1.17
323.15	0.9152	20470	1191.31	1.21
323.15	0.9152	25010	1193.45	1.25
323.15	0.9152	30070	1195.79	1.3
323.15	0.9152	34960	1198	1.34
323.15	0.9152	40000	1200.22	1.39
323.15	1	730	1192.89	1.26
323.15	1	5640	1195.3	1.3
323.15	1	10610	1197.71	1.35
323.15	1	15440	1200.01	1.39
323.15	1	20460	1202.37	1.44
323.15	1	25360	1204.64	1.48
323.15	1	30740	1207.09	1.53
323.15	1	35650	1209.29	1.58
323.15	1	39850	1211.14	1.62
348.15	0.0701	520	835.75	0.15
348.15	0.0701	5340	840.67	0.17
348.15	0.0701	11710	846.75	0.19
348.15	0.0701	15840	850.45	0.21
348.15	0.0701	20550	854.43	0.22
348.15	0.0701	25380	858.25	0.24
348.15	0.0701	30220	861.8	0.26
348.15	0.0701	35170	865.16	0.28
348.15	0.0701	40030	868.18	0.3
348.15	0.3147	230	1007.5	0.16
348.15	0.3147	5740	1011.89	0.16
348.15	0.3147	11420	1016.16	0.16
348.15	0.3147	15740	1019.22	0.17
348.15	0.3147	21630	1023.15	0.17
348.15	0.3147	26120	1025.95	0.18
348.15	0.3147	30550	1028.55	0.19
348.15	0.3147	35630	1031.33	0.19
348.15	0.3147	40010	1033.56	0.2
348.15	0.5384	450	1088.13	0.34
348.15	0.5384	5010	1091.32	0.36
348.15	0.5384	10060	1094.71	0.38
348.15	0.5384	15210	1098.01	0.41
348.15	0.5384	20060	1100.98	0.43
348.15	0.5384	25430	1104.11	0.46
348.15	0.5384	30670	1107	0.48
348.15	0.5384	35620	1109.59	0.51
348.15	0.5384	39560	1111.54	0.53
348.15	0.7452	380	1134.96	0.66
348.15	0.7452	5360	1138.08	0.69
348.15	0.7452	10090	1140.95	0.72
348.15	0.7452	15420	1144.07	0.76
348.15	0.7452	20080	1146.71	0.79
348.15	0.7452	25410	1149.62	0.82
348.15	0.7452	30070	1152.07	0.86
348.15	0.7452	35140	1154.63	0.89
348.15	0.7452	39940	1156.96	0.93
348.15	0.9152	460	1163.17	1.01
348.15	0.9152	5040	1165.81	1.04
348.15	0.9152	11210	1169.27	1.09
348.15	0.9152	15080	1171.38	1.12
348.15	0.9152	20740	1174.39	1.17
348.15	0.9152	25140	1176.67	1.2
348.15	0.9152	29980	1179.1	1.25
348.15	0.9152	35070	1181.59	1.29
348.15	0.9152	39740	1183.8	1.33
348.15	1	210	1174.44	1.21
348.15	1	5960	1177.75	1.26
348.15	1	10480	1180.3	1.3
348.15	1	15430	1182.72	1.34
348.15	1	20870	1185.63	1.39
348.15	1	25850	1188.16	1.43
348.15	1	30110	1190.19	1.47
348.15	1	35110	1192.88	1.52
348.15	1	39610	1194.77	1.56
373.15	0.0701	510	812.28	0.16
373.15	0.0701	5790	818.18	0.18
373.15	0.0701	11040	823.77	0.2
373.15	0.0701	15130	827.92	0.22
373.15	0.0701	21220	833.79	0.25
373.15	0.0701	25130	837.37	0.27
373.15	0.0701	30260	841.81	0.29
373.15	0.0701	35520	846.1	0.31
373.15	0.0701	39840	849.4	0.33
373.15	0.3147	810	987.83	0.16
373.15	0.3147	5820	992.08	0.16
373.15	0.3147	10950	996.25	0.15
373.15	0.3147	15730	999.95	0.15
373.15	0.3147	19860	1003.02	0.15
373.15	0.3147	25990	1007.35	0.16
373.15	0.3147	30670	1010.47	0.16
373.15	0.3147	35220	1013.34	0.17
373.15	0.3147	39820	1016.1	0.17
373.15	0.5384	750	1069.65	0.33
373.15	0.5384	5060	1072.77	0.34
373.15	0.5384	10070	1076.3	0.36
373.15	0.5384	15340	1079.9	0.38
373.15	0.5384	20610	1083.37	0.4
373.15	0.5384	25930	1086.76	0.43
373.15	0.5384	30010	1089.27	0.45
373.15	0.5384	35030	1092.26	0.47
373.15	0.5384	39940	1095.08	0.49
373.15	0.7452	520	1117.1	0.63
373.15	0.7452	5090	1120.2	0.66
373.15	0.7452	10610	1123.82	0.69
373.15	0.7452	15840	1127.11	0.72
373.15	0.7452	20090	1129.7	0.75
373.15	0.7452	25460	1132.84	0.79
373.15	0.7452	30070	1135.43	0.82
373.15	0.7452	35180	1138.19	0.85
373.15	0.7452	39920	1140.63	0.88
373.15	0.9152	780	1145.53	0.98
373.15	0.9152	5140	1148.26	1.01
373.15	0.9152	10570	1151.58	1.05
373.15	0.9152	15080	1154.27	1.08
373.15	0.9152	20540	1157.45	1.12
373.15	0.9152	24670	1159.79	1.15
373.15	0.9152	29760	1162.61	1.19
373.15	0.9152	36740	1166.35	1.25
373.15	0.9152	39870	1167.99	1.28
373.15	1	470	1157.24	1.18
373.15	1	5350	1160.25	1.21
373.15	1	10080	1163.09	1.25
373.15	1	15710	1166.39	1.29
373.15	1	20970	1169.38	1.34
373.15	1	25820	1172.07	1.38
373.15	1	30120	1174.39	1.41
373.15	1	35530	1177.22	1.46
373.15	1	39820	1179.41	1.5
398.15	0.0701	1010	788.85	0.17
398.15	0.0701	5750	795.42	0.19
398.15	0.0701	10150	801.14	0.21
398.15	0.0701	15110	807.16	0.24
398.15	0.0701	20740	813.42	0.27
398.15	0.0701	25130	817.89	0.29
398.15	0.0701	30850	823.16	0.32
398.15	0.0701	35860	827.28	0.35
398.15	0.0701	39990	830.32	0.37
398.15	0.3147	960	966.26	0.17
398.15	0.3147	6350	971.33	0.16
398.15	0.3147	10930	975.46	0.17
398.15	0.3147	15620	979.51	0.17
398.15	0.3147	20150	983.26	0.17
398.15	0.3147	25170	987.21	0.16
398.15	0.3147	30410	991.12	0.16
398.15	0.3147	35160	994.46	0.16
398.15	0.3147	39850	997.59	0.16
398.15	0.5384	920	1049.06	0.31
398.15	0.5384	5060	1052.44	0.32
398.15	0.5384	10420	1056.68	0.34
398.15	0.5384	15030	1060.22	0.35
398.15	0.5384	19970	1063.89	0.37
398.15	0.5384	24980	1067.49	0.39
398.15	0.5384	30030	1070.98	0.41
398.15	0.5384	35070	1074.35	0.43
398.15	0.5384	39940	1077.48	0.45
398.15	0.7452	940	1098.62	0.61
398.15	0.7452	5120	1101.74	0.63
398.15	0.7452	10070	1105.35	0.66
398.15	0.7452	15080	1108.88	0.69
398.15	0.7452	20640	1112.68	0.72
398.15	0.7452	25370	1115.8	0.75
398.15	0.7452	30280	1118.94	0.78
398.15	0.7452	35140	1121.93	0.81
398.15	0.7452	39920	1124.78	0.84
398.15	0.9152	860	1128.45	0.95
398.15	0.9152	5840	1131.83	0.98
398.15	0.9152	9630	1134.36	1
398.15	0.9152	16470	1138.81	1.05
398.15	0.9152	20040	1141.07	1.07
398.15	0.9152	25120	1144.22	1.11
398.15	0.9152	30450	1147.45	1.15
398.15	0.9152	35740	1150.56	1.19
398.15	0.9152	39860	1152.93	1.22
398.15	1	870	1141.05	1.14
398.15	1	6670	1144.53	1.18
398.15	1	10490	1147.07	1.21
398.15	1	15730	1150.32	1.25
398.15	1	20980	1153.78	1.29
398.15	1	25140	1156.3	1.32
398.15	1	30890	1159.52	1.37
398.15	1	35810	1162.4	1.41
398.15	1	39560	1164.38	1.44
