Measured thermophysical data. Densities, Ultrasonic Speeds, and Excess Properties of Binary Mixtures of Diethylene Glycol with 1-Butanol, 2-Butanol, and 1,4-Butanediol at Different Temperatures
Source: Int. J. Thermophys., 2015, 10.1007/s10765-015-1980-6
Compound 1: diethylene glycol, C4H10O3, InChI=1S/C4H10O3/c5-1-3-7-4-2-6/h5-6H,1-4H2
Compound 2: butan-1-ol, C4H10O, InChI=1S/C4H10O/c1-2-3-4-5/h5H,2-4H2,1H3
Compound 3: butan-2-ol, C4H10O, InChI=1S/C4H10O/c1-3-4(2)5/h4-5H,3H2,1-2H3
Compound 4: 1,4-butanediol, C4H10O2, InChI=1S/C4H10O2/c5-3-1-2-4-6/h5-6H,1-4H2

System: diethylene glycol; phases: Liquid
Fixed: Pressure, kPa = 101
Property: Mass density, kg/m3 (Liquid); method: Pycnometric method
Temperature, K	Mass density, kg/m3	uncertainty
298.15	1112.7	0.7
303.15	1109.3	0.7
308.15	1105.9	0.7
313.15	1102.5	0.7

System: diethylene glycol; phases: Liquid
Fixed: Pressure, kPa = 101
Fixed: Frequency, MHz = 2
Property: Speed of sound, m/s (Liquid); method: LVPAI:UFactor:2
Temperature, K	Speed of sound, m/s	uncertainty
298.15	1579.3	8.5
303.15	1568	8.4
308.15	1557.3	8.3
313.15	1546.1	8.3

System: butan-1-ol; phases: Liquid
Fixed: Pressure, kPa = 101
Property: Mass density, kg/m3 (Liquid); method: Pycnometric method
Temperature, K	Mass density, kg/m3	uncertainty
298.15	805.6	0.6
303.15	801.9	0.6
308.15	798.2	0.6
313.15	794.5	0.6

System: butan-1-ol; phases: Liquid
Fixed: Pressure, kPa = 101
Fixed: Frequency, MHz = 2
Property: Speed of sound, m/s (Liquid); method: LVPAI:UFactor:2
Temperature, K	Speed of sound, m/s	uncertainty
298.15	1241.1	6.7
303.15	1223.8	6.6
308.15	1205.8	6.5
313.15	1188.8	6.4

System: butan-2-ol; phases: Liquid
Fixed: Pressure, kPa = 101
Property: Mass density, kg/m3 (Liquid); method: Pycnometric method
Temperature, K	Mass density, kg/m3	uncertainty
298.15	802.4	0.6
303.15	798.3	0.7
308.15	794.2	0.7
313.15	790.1	0.7

System: butan-2-ol; phases: Liquid
Fixed: Pressure, kPa = 101
Fixed: Frequency, MHz = 2
Property: Speed of sound, m/s (Liquid); method: Linear variable-path acoustic interferometer
Temperature, K	Speed of sound, m/s	uncertainty
298.15	1212.2	6.2
303.15	1194.1	6.1
308.15	1175.3	6
313.15	1157.4	5.9

System: 1,4-butanediol; phases: Liquid
Fixed: Pressure, kPa = 101
Property: Mass density, kg/m3 (Liquid); method: Pycnometric method
Temperature, K	Mass density, kg/m3	uncertainty
298.15	1012.6	0.6
303.15	1009.6	0.6
308.15	1006.7	0.6
313.15	1003.7	0.6

System: 1,4-butanediol; phases: Liquid
Fixed: Pressure, kPa = 101
Fixed: Frequency, MHz = 2
Property: Speed of sound, m/s (Liquid); method: Linear variable-path acoustic interferometer
Temperature, K	Speed of sound, m/s	uncertainty
298.15	1601.6	8.2
303.15	1589.3	8.1
308.15	1577.7	8
313.15	1565.6	8

System: butan-1-ol + diethylene glycol; phases: Liquid
Fixed: Pressure, kPa = 101
Property: Mass density, kg/m3 (Liquid); method: Pycnometric method
Temperature, K	Mole fraction of diethylene glycol	Mass density, kg/m3	uncertainty
298.15	0	805.6	0.6
298.15	0.1095	840.7	0.6
298.15	0.2096	872.6	0.6
298.15	0.2955	899.7	0.6
298.15	0.3874	928.5	0.6
298.15	0.5122	967.1	0.6
298.15	0.592	991.5	0.6
298.15	0.677	1017.3	0.6
298.15	0.7986	1053.5	0.7
298.15	0.896	1082.3	0.7
298.15	1	1112.7	0.7
303.15	0	801.9	0.6
303.15	0.1095	837	0.6
303.15	0.2096	868.9	0.6
303.15	0.2955	896.1	0.6
303.15	0.3874	924.9	0.6
303.15	0.5122	963.5	0.6
303.15	0.592	988	0.7
303.15	0.677	1013.7	0.7
303.15	0.7986	1050.1	0.7
303.15	0.896	1078.8	0.7
303.15	1	1109.3	0.7
308.15	0	798.2	0.6
308.15	0.1095	833.4	0.6
308.15	0.2096	865.3	0.6
308.15	0.2955	892.4	0.6
308.15	0.3874	921.2	0.6
308.15	0.5122	959.9	0.7
308.15	0.592	984.4	0.7
308.15	0.677	1010.2	0.7
308.15	0.7986	1046.6	0.7
308.15	0.896	1075.4	0.7
308.15	1	1105.9	0.7
313.15	0	794.5	0.6
313.15	0.1095	829.7	0.6
313.15	0.2096	861.6	0.6
313.15	0.2955	888.8	0.6
313.15	0.3874	917.6	0.7
313.15	0.5122	956.3	0.7
313.15	0.592	980.9	0.7
313.15	0.677	1006.7	0.7
313.15	0.7986	1043.1	0.7
313.15	0.896	1072	0.7
313.15	1	1102.5	0.7

System: butan-1-ol + diethylene glycol; phases: Liquid
Fixed: Pressure, kPa = 101
Fixed: Frequency, MHz = 2
Property: Speed of sound, m/s (Liquid); method: LVPAI:UFactor:2
Temperature, K	Mole fraction of diethylene glycol	Speed of sound, m/s	uncertainty
298.15	0	1241.1	6.7
298.15	0.1095	1265.9	6.8
298.15	0.2096	1294	7
298.15	0.2955	1320.9	7.1
298.15	0.3874	1350.8	7.3
298.15	0.5122	1392.3	7.5
298.15	0.592	1419.3	7.6
298.15	0.677	1448.9	7.8
298.15	0.7986	1492.7	8
298.15	0.896	1531.3	8.2
298.15	1	1579.3	8.5
303.15	0	1223.8	6.6
303.15	0.1095	1249.5	6.7
303.15	0.2096	1277.8	6.9
303.15	0.2955	1305.3	7
303.15	0.3874	1335.3	7.2
303.15	0.5122	1377.7	7.4
303.15	0.592	1406	7.6
303.15	0.677	1436.8	7.7
303.15	0.7986	1481.1	7.9
303.15	0.896	1520.6	8.2
303.15	1	1568	8.4
308.15	0	1205.8	6.5
308.15	0.1095	1232.3	6.6
308.15	0.2096	1261.3	6.8
308.15	0.2955	1289	6.9
308.15	0.3874	1318.7	7.1
308.15	0.5122	1361.9	7.3
308.15	0.592	1391.6	7.5
308.15	0.677	1424.2	7.6
308.15	0.7986	1470.1	7.9
308.15	0.896	1510	8.1
308.15	1	1557.3	8.3
313.15	0	1188.8	6.4
313.15	0.1095	1215.9	6.6
313.15	0.2096	1245.8	6.7
313.15	0.2955	1273.5	6.9
313.15	0.3874	1303.2	7
313.15	0.5122	1347.4	7.2
313.15	0.592	1378	7.4
313.15	0.677	1411.6	7.6
313.15	0.7986	1459.2	7.8
313.15	0.896	1500	8
313.15	1	1546.1	8.3

System: butan-2-ol + diethylene glycol; phases: Liquid
Fixed: Pressure, kPa = 101
Property: Mass density, kg/m3 (Liquid); method: Pycnometric method
Temperature, K	Mole fraction of diethylene glycol	Mass density, kg/m3	uncertainty
298.15	0	802.4	0.6
298.15	0.1097	838.7	0.6
298.15	0.2096	871.6	0.6
298.15	0.2951	899.5	0.6
298.15	0.3876	929.3	0.6
298.15	0.512	968.6	0.6
298.15	0.592	993.4	0.6
298.15	0.6771	1019.2	0.6
298.15	0.7984	1055.1	0.6
298.15	0.8962	1083.2	0.7
298.15	1	1112.7	0.7
303.15	0	798.3	0.7
303.15	0.1097	834.7	0.7
303.15	0.2096	867.7	0.6
303.15	0.2951	895.7	0.6
303.15	0.3876	925.5	0.7
303.15	0.512	964.9	0.7
303.15	0.592	989.8	0.7
303.15	0.6771	1015.8	0.7
303.15	0.7984	1051.8	0.7
303.15	0.8962	1079.9	0.7
303.15	1	1109.3	0.7
308.15	0	794.2	0.7
308.15	0.1097	830.7	0.7
308.15	0.2096	863.9	0.6
308.15	0.2951	891.9	0.7
308.15	0.3876	921.8	0.7
308.15	0.512	961.2	0.7
308.15	0.592	986.2	0.7
308.15	0.6771	1012.3	0.7
308.15	0.7984	1048.4	0.7
308.15	0.8962	1076.6	0.7
308.15	1	1105.9	0.7
313.15	0	790.1	0.7
313.15	0.1097	826.8	0.7
313.15	0.2096	860.1	0.7
313.15	0.2951	888.1	0.7
313.15	0.3876	918	0.7
313.15	0.512	957.6	0.7
313.15	0.592	982.6	0.7
313.15	0.6771	1008.9	0.7
313.15	0.7984	1045.1	0.7
313.15	0.8962	1073.3	0.7
313.15	1	1102.5	0.7

System: butan-2-ol + diethylene glycol; phases: Liquid
Fixed: Pressure, kPa = 101
Fixed: Frequency, MHz = 2
Property: Speed of sound, m/s (Liquid); method: Linear variable-path acoustic interferometer
Temperature, K	Mole fraction of diethylene glycol	Speed of sound, m/s	uncertainty
298.15	0	1212.2	6.2
298.15	0.1097	1243.1	6.4
298.15	0.2096	1273.6	6.5
298.15	0.2951	1300.5	6.7
298.15	0.3876	1330.6	6.8
298.15	0.512	1372	7
298.15	0.592	1400	7.2
298.15	0.6771	1431.4	7.3
298.15	0.7984	1480.5	7.6
298.15	0.8962	1525.1	7.8
298.15	1	1579.3	8.1
303.15	0	1194.1	6.1
303.15	0.1097	1225.2	6.3
303.15	0.2096	1256.7	6.4
303.15	0.2951	1283.5	6.6
303.15	0.3876	1313.5	6.7
303.15	0.512	1356.2	6.9
303.15	0.592	1386.1	7.1
303.15	0.6771	1418.2	7.2
303.15	0.7984	1468.2	7.5
303.15	0.8962	1513.4	7.7
303.15	1	1568	8
308.15	0	1175.3	6
308.15	0.1097	1207.6	6.2
308.15	0.2096	1239.8	6.3
308.15	0.2951	1266	6.5
308.15	0.3876	1296	6.6
308.15	0.512	1339.4	6.8
308.15	0.592	1370.1	7
308.15	0.6771	1403	7.2
308.15	0.7984	1454.1	7.4
308.15	0.8962	1501.7	7.7
308.15	1	1557.3	8
313.15	0	1157.4	5.9
313.15	0.1097	1190.1	6.1
313.15	0.2096	1222.7	6.3
313.15	0.2951	1249.1	6.4
313.15	0.3876	1279.3	6.5
313.15	0.512	1323.4	6.8
313.15	0.592	1354.9	6.9
313.15	0.6771	1389.2	7.1
313.15	0.7984	1441.2	7.4
313.15	0.8962	1490	7.6
313.15	1	1546.1	7.9

System: 1,4-butanediol + diethylene glycol; phases: Liquid
Fixed: Pressure, kPa = 101
Property: Mass density, kg/m3 (Liquid); method: Pycnometric method
Temperature, K	Mole fraction of diethylene glycol	Mass density, kg/m3	uncertainty
298.15	0	1012.6	0.6
298.15	0.108	1019.9	0.6
298.15	0.1977	1026.6	0.6
298.15	0.2897	1035	0.6
298.15	0.4096	1047	0.6
298.15	0.509	1057.6	0.6
298.15	0.6116	1069.4	0.6
298.15	0.6912	1078.5	0.6
298.15	0.7992	1090.6	0.6
298.15	0.8838	1100	0.7
298.15	1	1112.7	0.7
303.15	0	1009.6	0.6
303.15	0.108	1017.1	0.6
303.15	0.1977	1024	0.6
303.15	0.2897	1032.3	0.6
303.15	0.4096	1044.3	0.6
303.15	0.509	1054.9	0.6
303.15	0.6116	1066.5	0.6
303.15	0.6912	1075.6	0.6
303.15	0.7992	1087.6	0.7
303.15	0.8838	1096.8	0.7
303.15	1	1109.3	0.7
308.15	0	1006.7	0.6
308.15	0.108	1014.4	0.6
308.15	0.1977	1021.4	0.6
308.15	0.2897	1029.6	0.6
308.15	0.4096	1041.6	0.6
308.15	0.509	1052.1	0.6
308.15	0.6116	1063.7	0.6
308.15	0.6912	1072.6	0.7
308.15	0.7992	1084.5	0.7
308.15	0.8838	1093.6	0.7
308.15	1	1105.9	0.7
313.15	0	1003.7	0.6
313.15	0.108	1011.7	0.6
313.15	0.1977	1018.7	0.6
313.15	0.2897	1027	0.6
313.15	0.4096	1038.9	0.6
313.15	0.509	1049.4	0.6
313.15	0.6116	1060.8	0.6
313.15	0.6912	1069.6	0.7
313.15	0.7992	1081.3	0.7
313.15	0.8838	1090.3	0.7
313.15	1	1102.5	0.7

System: 1,4-butanediol + diethylene glycol; phases: Liquid
Fixed: Pressure, kPa = 101
Fixed: Frequency, MHz = 2
Property: Speed of sound, m/s (Liquid); method: Linear variable-path acoustic interferometer
Temperature, K	Mole fraction of diethylene glycol	Speed of sound, m/s	uncertainty
298.15	0	1601.6	8.2
298.15	0.108	1568.1	8
298.15	0.1977	1549.9	7.9
298.15	0.2897	1543.5	7.9
298.15	0.4096	1546.2	7.9
298.15	0.509	1552.2	7.9
298.15	0.6116	1558.9	8
298.15	0.6912	1564.5	8
298.15	0.7992	1571.3	8
298.15	0.8838	1575.3	8
298.15	1	1579.3	8.1
303.15	0	1589.3	8.1
303.15	0.108	1558.9	7.9
303.15	0.1977	1542	7.9
303.15	0.2897	1535.7	7.8
303.15	0.4096	1538.6	7.8
303.15	0.509	1544	7.9
303.15	0.6116	1550.2	7.9
303.15	0.6912	1555.3	7.9
303.15	0.7992	1561.2	8
303.15	0.8838	1564.6	8
303.15	1	1568	8
308.15	0	1577.7	8
308.15	0.108	1549.8	7.9
308.15	0.1977	1534.4	7.8
308.15	0.2897	1528.2	7.8
308.15	0.4096	1531.1	7.8
308.15	0.509	1536.3	7.8
308.15	0.6116	1541.8	7.9
308.15	0.6912	1546.4	7.9
308.15	0.7992	1551.7	7.9
308.15	0.8838	1554.7	7.9
308.15	1	1557.3	8
313.15	0	1565.6	8
313.15	0.108	1540.6	7.9
313.15	0.1977	1526.6	7.8
313.15	0.2897	1520.3	7.8
313.15	0.4096	1523.2	7.8
313.15	0.509	1528.1	7.8
313.15	0.6116	1533.1	7.8
313.15	0.6912	1537.2	7.8
313.15	0.7992	1541.7	7.9
313.15	0.8838	1544.4	7.9
313.15	1	1546.1	7.9
