Measured thermophysical data. Fluid Phase Topology of Benzene + Cyclohexane + 1-Propanol at 101.3 kPa
Source: Int. J. Thermophys., 2015, 10.1007/s10765-015-1922-3
Compound 1: benzene, C6H6, InChI=1S/C6H6/c1-2-4-6-5-3-1/h1-6H
Compound 2: cyclohexane, C6H12, InChI=1S/C6H12/c1-2-4-6-5-3-1/h1-6H2
Compound 3: propan-1-ol, C3H8O, InChI=1S/C3H8O/c1-2-3-4/h4H,2-3H2,1H3

System: benzene; phases: Liquid
Property: Mass density, kg/m3 (Liquid); method: Vibrating tube method
Temperature, K	Pressure, kPa	Mass density, kg/m3	uncertainty
298.15	101.325	873.6	0.16

System: benzene; phases: Liquid
Property: Refractive index (Na D-line) (Liquid); method: Standard Abbe refractometry
Temperature, K	Pressure, kPa	Refractive index (Na D-line)	uncertainty
298.15	101.325	1.49692	0.00073

System: benzene; phases: Liquid, Gas
Property: Normal boiling temperature, K (Liquid); method: Ebulliometric method (Recirculating still)
Normal boiling temperature, K	uncertainty
353.16	0.2

System: cyclohexane; phases: Liquid
Property: Mass density, kg/m3 (Liquid); method: Vibrating tube method
Temperature, K	Pressure, kPa	Mass density, kg/m3	uncertainty
298.15	101.325	773.7	0.2

System: cyclohexane; phases: Liquid
Property: Refractive index (Na D-line) (Liquid); method: Standard Abbe refractometry
Temperature, K	Pressure, kPa	Refractive index (Na D-line)	uncertainty
298.15	101.325	1.4232	0.00073

System: cyclohexane; phases: Liquid, Gas
Property: Normal boiling temperature, K (Liquid); method: Ebulliometric method (Recirculating still)
Normal boiling temperature, K	uncertainty
353.79	0.2

System: propan-1-ol; phases: Liquid
Property: Mass density, kg/m3 (Liquid); method: Vibrating tube method
Temperature, K	Pressure, kPa	Mass density, kg/m3	uncertainty
298.15	101.325	799.51	0.31

System: propan-1-ol; phases: Liquid
Property: Refractive index (Na D-line) (Liquid); method: Standard Abbe refractometry
Temperature, K	Pressure, kPa	Refractive index (Na D-line)	uncertainty
298.15	101.325	1.38305	0.00075

System: propan-1-ol; phases: Liquid, Gas
Property: Normal boiling temperature, K (Liquid); method: Ebulliometric method (Recirculating still)
Normal boiling temperature, K	uncertainty
370.4	0.2

System: propan-1-ol + benzene + cyclohexane; phases: Liquid, Gas
Fixed: Pressure, kPa = 101.3
Property: Mole fraction of cyclohexane (Liquid); method: Chromatography
Property: Mole fraction of cyclohexane (Gas); method: Chromatography
Property: Mole fraction of benzene (Gas); method: Chromatography
Temperature, K	Mole fraction of benzene	Mole fraction of cyclohexane	uncertainty	Mole fraction of cyclohexane	uncertainty	Mole fraction of benzene	uncertainty
344.69	0.0352	0.8584	0.013	0.7772	0.0132	0.0221	
351	0.1145	0.1821	0.0131	0.4861	0.0138	0.1385	
351.19	0.0372	0.1821	0.0131	0.545	0.0138	0.0508	
359.77	0.1008	0.0409	0.013	0.1883	0.0131	0.1929	
358.43	0.1429	0.0471	0.013	0.1943	0.0131	0.2451	
358.25	0.1772	0.043	0.013	0.1696	0.0131	0.2888	
349.51	0.0597	0.2251	0.0131	0.5724	0.0137	0.0709	
352.88	0.1929	0.133	0.013	0.3698	0.0134	0.2342	
345.65	0.0783	0.8533	0.0131	0.777	0.0132	0.0501	
346.53	0.1899	0.7182	0.0132	0.6969	0.0134	0.1187	
345.66	0.142	0.7162	0.0132	0.7026	0.0134	0.0884	
344.84	0.0323	0.8799	0.013	0.7883	0.0132	0.0205	
346.23	0.1948	0.6118	0.0133	0.6548	0.0135	0.1234	
347.35	0.2653	0.4737	0.0135	0.5845	0.0136	0.1767	
348.78	0.328	0.3519	0.0132	0.5059	0.0138	0.2345	
350.26	0.375	0.2609	0.0131	0.4294	0.0136	0.2883	
353.19	0.4415	0.1381	0.013	0.2826	0.0132	0.387	
347.33	0.1527	0.3509	0.0133	0.5925	0.0136	0.1291	
357.34	0.7793	0.1698	0.0131	0.2821	0.0132	0.5716	
354.97	0.6295	0.3468	0.0132	0.4767	0.0137	0.4438	
357.08	0.6863	0.045	0.013	0.0946	0.013	0.5681	
352.54	0.6031	0.2701	0.0131	0.3815	0.0135	0.4018	
344.88	0.0421	0.8645	0.013	0.7797	0.0132	0.0266	
351.6	0.4836	0.2271	0.0131	0.3668	0.0134	0.3549	
350.79	0.3828	0.2322	0.0131	0.4032	0.0135	0.3044	
349.54	0.1997	0.7857	0.0131	0.7959	0.0132	0.1409	
346.55	0.2213	0.619	0.0133	0.6481	0.0135	0.1383	
348.07	0.3348	0.4819	0.0135	0.5632	0.0137	0.2133	
352.05	0.4347	0.1842	0.0131	0.3396	0.0134	0.3543	
350.25	0.3456	0.2486	0.0131	0.431	0.0136	0.278	
355.25	0.4337	0.0747	0.013	0.1831	0.0131	0.437	
353.14	0.3916	0.133	0.013	0.2901	0.0133	0.3662	
348.58	0.2213	0.2977	0.0132	0.5239	0.0138	0.1879	
345.54	0.0891	0.8297	0.0131	0.761	0.0132	0.0563	
358.13	0.4778	0.0113	0.0113	0.0321	0.013	0.5327	
353.6	0.3838	0.1177	0.013	0.2699	0.0132	0.3738	
355.27	0.606	0.0911	0.013	0.1811	0.0131	0.4934	
356.88	0.4856	0.0368	0.013	0.0954	0.013	0.502	
352.23	0.5884	0.2895	0.0132	0.3995	0.0135	0.3889	
356.59	0.7705	0.1381	0.013	0.2345	0.0132	0.5582	
357.46	0.7989	0.1187	0.013	0.2087	0.0131	0.5906	
351.14	0.5296	0.3264	0.0132	0.434	0.014	0.3458	
359.4	0.8517	0.089	0.013	0.1675	0.0131	0.6598	
360.39	0.8752	0.0737	0.013	0.144	0.0131	0.6957	
348.23	0.3387	0.4471	0.0134	0.5469	0.0137	0.2202	
353.94	0.653	0.179	0.0131	0.2873	0.0132	0.4591	
348.76	0.3789	0.5075	0.0135	0.5676	0.0137	0.2375	
353.03	0.6217	0.2895	0.0132	0.4004	0.0135	0.4141	
344.97	0.0744	0.798	0.0131	0.7469	0.0133	0.0465	
350.65	0.4709	0.4604	0.0134	0.5394	0.0137	0.3027	
345.32	0.0813	0.8277	0.0131	0.7591	0.0132	0.0512	
348.49	0.3103	0.6261	0.0133	0.648	0.013	0.1973	
348.04	0.1547	0.8175	0.0131	0.7905	0.0132	0.1052	
346.02	0.0793	0.8666	0.013	0.7912	0.0132	0.0516	
349.69	0.3661	0.5862	0.0134	0.6312	0.0135	0.2375	
347.55	0.2722	0.4471	0.0134	0.5719	0.0137	0.1846	
353.74	0.3681	0.1125	0.013	0.2664	0.0132	0.3695	
354.99	0.5541	0.0921	0.013	0.1907	0.0131	0.472	
357.66	0.7979	0.0726	0.013	0.1368	0.0131	0.605	
357.93	0.8106	0.0737	0.013	0.1387	0.0131	0.6149	
358.26	0.8224	0.1044	0.013	0.1891	0.0131	0.6195	
346.55	0.2213	0.619	0.013	0.6481	0.0135	0.1383	
348.07	0.3348	0.4819	0.0135	0.5632	0.0137	0.2133	
352.05	0.4347	0.1842	0.0131	0.3396	0.0134	0.3543	
355.25	0.4337	0.0747	0.013	0.1831	0.0131	0.437	
353.14	0.3916	0.133	0.013	0.2901	0.0133	0.3662	
350.78	0.467	0.2783	0.0132	0.4125	0.0135	0.3264	
348.58	0.2213	0.2977	0.0132	0.5239	0.0138	0.1879	
356.2	0.3818	0.0532	0.013	0.1484	0.0131	0.4338	
347.21	0.048	0.3141	0.0132	0.645	0.0135	0.0486	
