Measured thermophysical data. Experimental Study of the Thermodynamic Properties of Diethyl Ether (DEE) at Saturation
Source: Int. J. Thermophys., 2011, 10.1007/s10765-011-0948-4
Compound 1: diethyl ether, C4H10O, InChI=1S/C4H10O/c1-3-5-4-2/h3-4H2,1-2H3, purity 99.88%

System: diethyl ether; phases: Liquid, Gas
Property: Critical pressure, kPa (Liquid); method: Extrapolated vapor pressure
Critical pressure, kPa	uncertainty
3605	57

System: diethyl ether; phases: Liquid, Gas
Property: Critical temperature, K (Liquid); method: quasi-static thermogram technique
Critical temperature, K	uncertainty
466.845	0.201

System: diethyl ether; phases: Liquid, Gas
Property: Critical density, kg/m3 (Liquid); method: quasi-satatic thermogram technique
Critical density, kg/m3	uncertainty
265.1	2

System: diethyl ether; phases: Liquid, Gas
Property: Molar heat capacity at constant volume, J/K/mol (Liquid); method: High-temperature High-pressure adiabatci calorimeter
Temperature, K	Molar heat capacity at constant volume, J/K/mol	uncertainty
416.096	156.767184	4.6696608
425.19	159.36144	4.817904
437.138	163.808736	4.8920256
450.603	170.2573152	5.113649184
450.766	171.962112	5.189253216
459.608	178.633056	5.3367552
464.785	190.492512	5.7073632
466.474	203.8344	6.1520928
466.755	210.6535872	6.300336
466.795	218.65872	6.5968224
466.805	233.48304	7.1156736
466.805	245.6389824	7.6345248

System: diethyl ether; phases: Gas, Liquid
Property: Molar heat capacity at constant volume, J/K/mol (Gas); method: High-temperature High-pressure adiabatci calorimeter
Temperature, K	Molar heat capacity at constant volume, J/K/mol	uncertainty
466.122	190.121904	5.7073632
466.659	208.5040608	6.300336
466.825	234.965472	7.41216
466.835	248.6038464	8.2274976
466.845	264.243504	9.1169568

System: diethyl ether; phases: Liquid, Gas
Property: Vapor or sublimation pressure, kPa (Liquid); method: ISOPVT
Temperature, K	Vapor or sublimation pressure, kPa	uncertainty
416.096	1599	48
425.19	1906	57
437.138	2280	68
450.603	2931	88
450.766	2933	88
459.608	3315	99
464.785	3580	107
466.474	3612	108
466.755	3601	108
466.795	3583	108
466.805	3608	108
466.805	3576	107

System: diethyl ether; phases: Liquid, Gas
Property: Thermal pressure coefficient, kPa/K (Liquid); method: barogram technique
Temperature, K	Thermal pressure coefficient, kPa/K	uncertainty
416.096	271.6	4.1
425.19	237.8	3.6
437.138	198.5	3
450.603	148.3	2.2
450.766	147.7	2.2
459.608	106.5	1.6
464.785	81.8	1.2
466.474	68	1
466.755	64.5	1
466.795	61	1
466.805	59.7	1
466.805	59.2	1

System: diethyl ether; phases: Gas, Liquid
Property: Thermal pressure coefficient, kPa/K (Gas); method: barogram technique
Temperature, K	Thermal pressure coefficient, kPa/K	uncertainty
466.122	52.3	0.8
466.659	54.3	0.8
466.825	55.9	0.9
466.835	56.1	0.9
466.845	55.9	0.9

System: diethyl ether; phases: Liquid, Gas
Property: Mass density, kg/m3 (Liquid); method: Constant volume piezo-calorimeter
Temperature, K	Mass density, kg/m3	uncertainty
416.096	534.6	0.3
425.19	517.3	0.3
437.138	485.2	0.3
450.603	441.5	0.2
450.766	440.8	0.2
459.608	394.8	0.2
464.785	348.2	0.3
466.474	310.8	0.8
466.755	296.7	0.8
466.795	288.3	1.1
466.805	278.7	1.5
466.805	275.7	1.6

System: diethyl ether; phases: Gas, Liquid
Property: Mass density, kg/m3 (Gas); method: constant volume piezo-calorimeter
Temperature, K	Mass density, kg/m3	uncertainty
466.122	212.6	0.6
466.659	233.7	0.8
466.825	255	1.9
466.835	260.7	2.3
466.845	261.2	2.2
