Measured thermophysical data. Solubility Determination and Modeling and Dissolution Thermodynamic Properties of Raspberry Ketone in Binary Solvent Mixtures of Ethanol andWater
Source: Int. J. Thermophys., 2018, 10.1007/s10765-017-2323-6
Compound 1: 4-(4-hydroxyphenyl)butan-2-one, C10H12O2, InChI=1S/C10H12O2/c1-8(11)2-3-9-4-6-10(12)7-5-9/h4-7,12H,2-3H2,1H3
Compound 2: ethanol, C2H6O, InChI=1S/C2H6O/c1-2-3/h3H,2H2,1H3
Compound 3: water, H2O, InChI=1S/H2O/h1H2, purity 99.8%

System: 4-(4-hydroxyphenyl)butan-2-one; phases: Crystal, Liquid, Air at 1 atmosphere
Property: Normal melting temperature, K (Crystal); method: DTA
Normal melting temperature, K	uncertainty
355	0.6

System: 4-(4-hydroxyphenyl)butan-2-one; phases: Crystal, Liquid, Air at 1 atmosphere
Property: Molar enthalpy of transition or fusion, kJ/mol (Crystal); method: DSC
Molar enthalpy of transition or fusion, kJ/mol	uncertainty
24.7	0.6

System: ethanol + 4-(4-hydroxyphenyl)butan-2-one + water; phases: Liquid, Crystal
Fixed: Pressure, kPa = 100
Property: Mole fraction of 4-(4-hydroxyphenyl)butan-2-one (Liquid); method: gravimetric
Temperature, K	Solvent: Mole fraction of ethanol	Mole fraction of 4-(4-hydroxyphenyl)butan-2-one	uncertainty
283.15	0	0.000532	5.3e-05
288.15	0	0.000702	7e-05
293.15	0	0.000867	8.7e-05
298.15	0	0.00106	0.000106
303.15	0	0.001386	0.000139
308.15	0	0.001698	0.00017
313.15	0	0.002085	0.000209
283.15	0.2001	0.00782	0.000793
288.15	0.2001	0.013295	0.00134
293.15	0.2001	0.022622	0.00228
298.15	0.2001	0.039614	0.003991
303.15	0.2001	0.067978	0.006853
308.15	0.2001	0.123337	0.012404
313.15	0.2001	0.194766	0.019507
283.15	0.3998	0.049739	0.004999
288.15	0.3998	0.074414	0.007466
293.15	0.3998	0.10338	0.01037
298.15	0.3998	0.146383	0.014674
303.15	0.3998	0.19347	0.019383
308.15	0.3998	0.249062	0.024946
313.15	0.3998	0.317426	0.031767
283.15	0.5003	0.075189	0.00755
288.15	0.5003	0.103582	0.010383
293.15	0.5003	0.138751	0.013897
298.15	0.5003	0.170287	0.017054
303.15	0.5003	0.220643	0.022094
308.15	0.5003	0.272381	0.027268
313.15	0.5003	0.333219	0.033349
283.15	0.6011	0.091825	0.00921
288.15	0.6011	0.121098	0.012129
293.15	0.6011	0.153968	0.015418
298.15	0.6011	0.194419	0.019465
303.15	0.6011	0.238426	0.023865
308.15	0.6011	0.284512	0.028474
313.15	0.6011	0.336075	0.033631
283.15	0.7999	0.101947	0.010213
288.15	0.7999	0.130298	0.013047
293.15	0.7999	0.161895	0.01621
298.15	0.7999	0.203281	0.020351
303.15	0.7999	0.248602	0.024881
308.15	0.7999	0.290795	0.0291
313.15	0.7999	0.33985	0.034009
283.15	0.9008	0.105919	0.01061
288.15	0.9008	0.135749	0.013593
293.15	0.9008	0.170556	0.017076
298.15	0.9008	0.211589	0.02118
303.15	0.9008	0.25418	0.025439
308.15	0.9008	0.298707	0.029893
313.15	0.9008	0.349394	0.034962
283.15	1	0.11143	0.011161
288.15	1	0.140896	0.014109
293.15	1	0.179628	0.017982
298.15	1	0.214964	0.021516
303.15	1	0.258193	0.025839
308.15	1	0.300085	0.030032
313.15	1	0.357029	0.035729

System: 4-(4-hydroxyphenyl)butan-2-one + water; phases: Liquid, Crystal
Fixed: Pressure, kPa = 100
Property: Mole fraction of 4-(4-hydroxyphenyl)butan-2-one (Liquid); method: gravimetric
Temperature, K	Mole fraction of 4-(4-hydroxyphenyl)butan-2-one	uncertainty
283.15	0.000532	5.3e-05
288.15	0.000702	7e-05
293.15	0.000867	8.7e-05
298.15	0.00106	0.000106
303.15	0.001386	0.000139
308.15	0.001698	0.00017
313.15	0.002085	0.000209

System: ethanol + 4-(4-hydroxyphenyl)butan-2-one; phases: Liquid, Crystal
Fixed: Pressure, kPa = 100
Property: Mole fraction of 4-(4-hydroxyphenyl)butan-2-one (Liquid); method: gravimetric
Temperature, K	Mole fraction of 4-(4-hydroxyphenyl)butan-2-one	uncertainty
283.15	0.11143	0.011161
288.15	0.140896	0.014109
293.15	0.179628	0.017982
298.15	0.214964	0.021516
303.15	0.258193	0.025839
308.15	0.300085	0.030032
313.15	0.357029	0.035729
