Measured thermophysical data. A Novel Vibrating Finger Viscometer for High-Temperature Measurements in Liquid Metals and Alloys
Source: Int. J. Thermophys., 2016, 10.1007/s10765-016-2104-7
Compound 1: gold, Au, InChI=1S/Au, purity 99.99%
Compound 2: silver, Ag, InChI=1S/Ag, purity 99.9%
Compound 3: tin, Sn, InChI=1S/Sn, purity 99.9%

System: gold; phases: Liquid, Gas
Property: Viscosity, Pa*s (Liquid); method: Vibrating wire viscometry
Temperature, K	Viscosity, Pa*s	uncertainty
1373	0.005625	0.00065
1423	0.00547	0.000162
1473	0.004963	0.000359
1523	0.004764	0.000253
1573	0.004495	0.000321
1623	0.004276	0.000508
1673	0.003981	0.000574

System: silver; phases: Liquid, Gas
Property: Viscosity, Pa*s (Liquid); method: Vibrating wire viscometry
Temperature, K	Viscosity, Pa*s	uncertainty
1273	0.00352	0.000744
1323	0.002904	0.00045
1373	0.002812	0.000646
1423	0.002649	0.00033
1473	0.00254	0.00022
1523	0.002498	0.000458
1573	0.002399	0.000352
1623	0.002332	0.00039
1673	0.002214	0.00127

System: tin; phases: Liquid, Gas
Property: Viscosity, Pa*s (Liquid); method: Vibrating wire viscometry
Temperature, K	Viscosity, Pa*s	uncertainty
873	0.001253	0.0002
973	0.001142	0.000296
1073	0.001087	4.7e-05
