Measured thermophysical data. Liquid-Liquid Coexistence Curve of n-Perfluorohexane - n-Hexane System
Source: Int. J. Thermophys., 2007, 10.1007/s10765-007-0237-4
Compound 1: hexane, C6H14, InChI=1S/C6H14/c1-3-5-6-4-2/h3-6H2,1-2H3, purity 99.6%
Compound 2: perfluorohexane, C6F14, InChI=1S/C6F14/c7-1(8,3(11,12)5(15,16)17)2(9,10)4(13,14)6(18,19)20, purity 99%

System: hexane + perfluorohexane; phases: Liquid mixture 1, Liquid mixture 2
Fixed: Pressure, kPa = 101
Property: Molar volume, m3/mol (Liquid mixture 1); method: gamma-ray attenuation technique
Mole fraction of perfluorohexane	Molar volume, m3/mol	uncertainty
0.3988	0.0001642	5e-07
0.4197	0.0001657	5e-07
0.4397	0.0001672	5e-07
0.4711	0.0001693	5e-07
0.5002	0.0001713	5e-07
0.5254	0.0001728	5e-07
0.5623	0.000175	5e-07
0.5921	0.0001766	5e-07
0.6138	0.0001777	5e-07
0.6405	0.0001789	5e-07

System: hexane + perfluorohexane; phases: Liquid mixture 2, Liquid mixture 1
Fixed: Pressure, kPa = 101
Property: Molar volume, m3/mol (Liquid mixture 2); method: gamma-ray attenuation technique
Mole fraction of perfluorohexane	Molar volume, m3/mol	uncertainty
0.1403	0.0001421	4e-07
0.1563	0.0001438	4e-07
0.1704	0.0001452	4e-07
0.1901	0.0001471	4e-07
0.2138	0.0001493	5e-07
0.2361	0.0001513	5e-07
0.2577	0.0001531	5e-07
0.2869	0.0001555	5e-07
0.3033	0.0001569	5e-07
0.3232	0.0001584	5e-07

System: hexane + perfluorohexane; phases: Liquid mixture 1, Liquid mixture 2
Fixed: Pressure, kPa = 101
Property: Mole fraction of perfluorohexane (Liquid mixture 1); method: gamma-ray attenuation technique
Temperature, K	Mole fraction of perfluorohexane	uncertainty
289.419	0.6405	0.0007
290.965	0.6138	0.0007
292.059	0.5921	0.0009
293.206	0.5623	0.0012
294.204	0.5254	0.0015
294.809	0.5002	0.0021
295.218	0.4711	0.0034
295.519	0.4397	0.0049
295.622	0.4197	0.0102
295.674	0.3988	0.0161

System: hexane + perfluorohexane; phases: Liquid mixture 2, Liquid mixture 1
Fixed: Pressure, kPa = 101
Property: Mole fraction of perfluorohexane (Liquid mixture 2); method: gamma-ray attenuation technique
Temperature, K	Mole fraction of perfluorohexane	uncertainty
289.417	0.1403	0.0004
290.966	0.1563	0.0005
292.057	0.1704	0.0006
293.207	0.1901	0.0008
294.204	0.2138	0.0011
294.81	0.2361	0.0017
295.218	0.2577	0.0028
295.519	0.2869	0.0044
295.622	0.3033	0.0089
295.674	0.3232	0.0153
