Measured thermophysical data. A Novel Instrument for the Measurement of the Thermal Conductivity of Molten Metals. Part II: Measurements
Source: Int. J. Thermophys., 2006, 10.1007/s10765-006-0057-y
Compound 1: mercury, Hg, InChI=1S/Hg
Compound 2: gallium, Ga, InChI=1S/Ga
Compound 3: tin, Sn, InChI=1S/Sn, purity 99.99%
Compound 4: indium, In, InChI=1S/In

System: mercury; phases: Liquid
Fixed: Pressure, kPa = 101.325
Property: Thermal conductivity, W/m/K (Liquid); method: Hot wire method
Temperature, K	Thermal conductivity, W/m/K	uncertainty
295.6	8.05	0.32
312.2	8.5	0.34
319.5	8.8	0.35
332	9.05	0.36
352	9.5	0.38
370.7	9.9	0.4
390	10.2	0.41
407.7	10.8	0.43
425.9	11.2	0.45
476.6	12.4	0.5
515.2	13	0.52

System: gallium; phases: Liquid
Fixed: Pressure, kPa = 101.325
Property: Thermal conductivity, W/m/K (Liquid); method: Hot wire method
Temperature, K	Thermal conductivity, W/m/K	uncertainty
321.3	29.3	1.2
367.7	33.5	1.3
416.3	37	1.5
465.6	41.1	1.6
520.4	45	1.8
565	47.7	1.9
614.3	50.9	2

System: tin; phases: Liquid
Fixed: Pressure, kPa = 101.325
Property: Thermal conductivity, W/m/K (Liquid); method: Hot wire method
Temperature, K	Thermal conductivity, W/m/K	uncertainty
534.3	30.7	1.2
571.2	32	1.3
603.2	33	1.3
630	33.5	1.3
678.2	34.3	1.4
703	34.5	1.4
730.2	35	1.4

System: indium; phases: Liquid
Fixed: Pressure, kPa = 101.325
Property: Thermal conductivity, W/m/K (Liquid); method: Hot wire method
Temperature, K	Thermal conductivity, W/m/K	uncertainty
453	34	1.4
491.5	38	1.5
521.9	39	1.6
554.2	40.5	1.6
587.1	42.3	1.7
617.1	43.5	1.7
660.9	45	1.8
700.4	46.5	1.9
743.6	47.5	1.9
