Measured thermophysical data. Speeds of Sound and Isentropic Compressibilities of n-Alkoxyethanols and Polyethers with Propylamine at 298.15K
Source: Int. J. Thermophys., 2006, 10.1007/s10765-006-0047-0
Compound 1: propan-1-amine, C3H9N, InChI=1S/C3H9N/c1-2-3-4/h2-4H2,1H3
Compound 2: 2-methoxyethan-1-ol, C3H8O2, InChI=1S/C3H8O2/c1-5-3-2-4/h4H,2-3H2,1H3
Compound 3: 2-(2-methoxyethoxy)ethanol, C5H12O3, InChI=1S/C5H12O3/c1-7-4-5-8-3-2-6/h6H,2-5H2,1H3
Compound 4: 2-[2-(2-methoxyethoxy)ethoxy]ethanol, C7H16O4, InChI=1S/C7H16O4/c1-9-4-5-11-7-6-10-3-2-8/h8H,2-7H2,1H3
Compound 5: 3,6-dioxa-1-octanol, C6H14O3, InChI=1S/C6H14O3/c1-2-8-5-6-9-4-3-7/h7H,2-6H2,1H3
Compound 6: 3,6-dioxa-1-decanol, C8H18O3, InChI=1S/C8H18O3/c1-2-3-5-10-7-8-11-6-4-9/h9H,2-8H2,1H3
Compound 7: diethylene glycol diethyl ether, C8H18O3, InChI=1S/C8H18O3/c1-3-9-5-7-11-8-6-10-4-2/h3-8H2,1-2H3
Compound 8: 5,8,11-trioxapentadecane, C12H26O3, InChI=1S/C12H26O3/c1-3-5-7-13-9-11-15-12-10-14-8-6-4-2/h3-12H2,1-2H3

System: propan-1-amine; phases: Liquid
Property: Mass density, kg/m3 (Liquid); method: Pycnometric method
Temperature, K	Pressure, kPa	Mass density, kg/m3	uncertainty
298.15	101.325	712.25	0.95

System: propan-1-amine; phases: Liquid
Property: Speed of sound, m/s (Liquid); method: Sing-around technique in a fixed-path interferometer
Temperature, K	Pressure, kPa	Speed of sound, m/s	uncertainty
298.15	101.325	1215.2	2.1

System: 2-methoxyethan-1-ol; phases: Liquid
Property: Mass density, kg/m3 (Liquid); method: Pycnometric method
Temperature, K	Pressure, kPa	Mass density, kg/m3	uncertainty
298.15	101.325	960.32	1.5

System: 2-methoxyethan-1-ol; phases: Liquid
Property: Speed of sound, m/s (Liquid); method: Sing-around technique in a fixed-path interferometer
Temperature, K	Pressure, kPa	Speed of sound, m/s	uncertainty
298.15	101.325	1343.3	2.1

System: 2-(2-methoxyethoxy)ethanol; phases: Liquid
Property: Mass density, kg/m3 (Liquid); method: Pycnometric method
Temperature, K	Pressure, kPa	Mass density, kg/m3	uncertainty
298.15	101.325	1016.43	1.64

System: 2-(2-methoxyethoxy)ethanol; phases: Liquid
Property: Speed of sound, m/s (Liquid); method: Sing-around technique in a fixed-path interferometer
Temperature, K	Pressure, kPa	Speed of sound, m/s	uncertainty
298.15	101.325	1417.2	2.1

System: 2-[2-(2-methoxyethoxy)ethoxy]ethanol; phases: Liquid
Property: Mass density, kg/m3 (Liquid); method: Pycnometric method
Temperature, K	Pressure, kPa	Mass density, kg/m3	uncertainty
298.15	101.325	1043.06	1.71

System: 2-[2-(2-methoxyethoxy)ethoxy]ethanol; phases: Liquid
Property: Speed of sound, m/s (Liquid); method: Sing-around technique in a fixed-path interferometer
Temperature, K	Pressure, kPa	Speed of sound, m/s	uncertainty
298.15	101.325	1459	2.1

System: 3,6-dioxa-1-octanol; phases: Liquid
Property: Mass density, kg/m3 (Liquid); method: Pycnometric method
Temperature, K	Pressure, kPa	Mass density, kg/m3	uncertainty
298.15	101.325	983.84	1.56

System: 3,6-dioxa-1-octanol; phases: Liquid
Property: Speed of sound, m/s (Liquid); method: Sing-around technique in a fixed-path interferometer
Temperature, K	Pressure, kPa	Speed of sound, m/s	uncertainty
298.15	101.325	1377.3	2.1

System: 3,6-dioxa-1-decanol; phases: Liquid
Property: Mass density, kg/m3 (Liquid); method: Pycnometric method
Temperature, K	Pressure, kPa	Mass density, kg/m3	uncertainty
298.15	101.325	947.98	1.47

System: 3,6-dioxa-1-decanol; phases: Liquid
Property: Speed of sound, m/s (Liquid); method: Sing-around technique in a fixed-path interferometer
Temperature, K	Pressure, kPa	Speed of sound, m/s	uncertainty
298.15	101.325	1358.9	2.1

System: diethylene glycol diethyl ether; phases: Liquid
Property: Mass density, kg/m3 (Liquid); method: Pycnometric method
Temperature, K	Pressure, kPa	Mass density, kg/m3	uncertainty
298.15	101.325	902.76	1.36

System: diethylene glycol diethyl ether; phases: Liquid
Property: Speed of sound, m/s (Liquid); method: Sing-around technique in a fixed-path interferometer
Temperature, K	Pressure, kPa	Speed of sound, m/s	uncertainty
298.15	101.325	1241.9	2.1

System: 5,8,11-trioxapentadecane; phases: Liquid
Property: Mass density, kg/m3 (Liquid); method: Pycnometric method
Temperature, K	Pressure, kPa	Mass density, kg/m3	uncertainty
298.15	101.325	878.55	1.3

System: 5,8,11-trioxapentadecane; phases: Liquid
Property: Speed of sound, m/s (Liquid); method: Sing-around technique in a fixed-path interferometer
Temperature, K	Pressure, kPa	Speed of sound, m/s	uncertainty
298.15	101.325	1270.1	2.1

System: propan-1-amine + 2-methoxyethan-1-ol; phases: Liquid
Fixed: Pressure, kPa = 101
Fixed: Temperature, K = 298.15
Property: Speed of sound, m/s (Liquid); method: Sing-around technique in a fixed-path interferometer
Mole fraction of 2-methoxyethan-1-ol	Speed of sound, m/s	uncertainty
0.0036	1215.3	2.1
0.0101	1216.4	2.1
0.0272	1218.3	2.1
0.047	1221.7	2.1
0.0831	1227.4	2.1
0.1175	1232.5	2.1
0.1521	1238.8	2.1
0.1977	1247	2.1
0.2378	1254	2.1
0.2982	1265.6	2.1
0.3629	1276.6	2.1
0.4188	1285.8	2.1
0.474	1294.1	2.1
0.5181	1299.6	2.1
0.5862	1307.8	2.1
0.6459	1314.6	2.1
0.7102	1321.5	2.1
0.799	1329.7	2.1
0.8253	1331.6	2.1
0.8642	1334.2	2.1
0.8918	1336.2	2.1
0.908	1338	2.1
0.9316	1339.5	2.1
0.9621	1341.5	2.1
0.9824	1342.9	2.1
0.9932	1343.4	2.1
0.9989	1343.5	2.1

System: propan-1-amine + 2-(2-methoxyethoxy)ethanol; phases: Liquid
Fixed: Pressure, kPa = 101
Fixed: Temperature, K = 298.15
Property: Speed of sound, m/s (Liquid); method: Sing-around technique in a fixed-path interferometer
Mole fraction of 2-(2-methoxyethoxy)ethanol	Speed of sound, m/s	uncertainty
0.0055	1215.3	2.1
0.0112	1217	2.1
0.024	1220.2	2.1
0.0454	1225.5	2.1
0.0749	1233.3	2.1
0.0948	1238.6	2.1
0.1292	1249.1	2.1
0.1834	1264.6	2.1
0.2523	1284.5	2.1
0.309	1301.5	2.1
0.3831	1320.8	2.1
0.4484	1337	2.1
0.5041	1349.4	2.1
0.5603	1360.6	2.1
0.6353	1373.2	2.1
0.6792	1380	2.1
0.7209	1385.9	2.1
0.7775	1392.7	2.1
0.8121	1397.5	2.1
0.8725	1404.9	2.1
0.912	1408.8	2.1
0.9332	1411.2	2.1
0.9535	1413.1	2.1
0.9852	1416.5	2.1
0.9983	1417.1	2.1

System: propan-1-amine + 2-[2-(2-methoxyethoxy)ethoxy]ethanol; phases: Liquid
Fixed: Pressure, kPa = 101
Fixed: Temperature, K = 298.15
Property: Speed of sound, m/s (Liquid); method: Sing-around technique in a fixed-path interferometer
Mole fraction of 2-[2-(2-methoxyethoxy)ethoxy]ethanol	Speed of sound, m/s	uncertainty
0.0039	1216.1	2.1
0.0134	1219.9	2.1
0.0327	1226.9	2.1
0.0519	1234.2	2.1
0.0799	1245.4	2.1
0.108	1258	2.1
0.1484	1274.9	2.1
0.2102	1299.7	2.1
0.2743	1324.5	2.1
0.341	1347.6	2.1
0.3879	1361.8	2.1
0.4351	1375	2.1
0.5433	1398.7	2.1
0.5904	1407.5	2.1
0.6475	1416	2.1
0.6873	1422.1	2.1
0.7353	1429.5	2.1
0.7806	1434.9	2.1
0.8226	1441.1	2.1
0.8873	1448.3	2.1
0.9295	1452.6	2.1
0.9565	1456.2	2.1
0.9751	1457	2.1
0.9898	1458.5	2.1
0.9973	1458.7	2.1

System: propan-1-amine + 3,6-dioxa-1-octanol; phases: Liquid
Fixed: Pressure, kPa = 101
Fixed: Temperature, K = 298.15
Property: Speed of sound, m/s (Liquid); method: Sing-around technique in a fixed-path interferometer
Mole fraction of 3,6-dioxa-1-octanol	Speed of sound, m/s	uncertainty
0.0021	1215.3	2.1
0.0048	1215.4	2.1
0.0177	1218.7	2.1
0.0374	1223.3	2.1
0.0647	1230.5	2.1
0.0909	1236.8	2.1
0.1313	1247.7	2.1
0.1669	1257.2	2.1
0.2491	1278.4	2.1
0.3135	1293.9	2.1
0.3898	1310.7	2.1
0.4519	1322.7	2.1
0.4879	1329.1	2.1
0.5348	1337.5	2.1
0.5888	1344.5	2.1
0.6314	1349.7	2.1
0.6808	1355.5	2.1
0.7314	1359.9	2.1
0.7778	1363.7	2.1
0.8381	1367.3	2.1
0.876	1370	2.1
0.9121	1371.4	2.1
0.9343	1373.1	2.1
0.9624	1374.6	2.1
0.9887	1375.9	2.1
0.9971	1376.8	2.1

System: propan-1-amine + 3,6-dioxa-1-decanol; phases: Liquid
Fixed: Pressure, kPa = 101
Fixed: Temperature, K = 298.15
Property: Speed of sound, m/s (Liquid); method: Sing-around technique in a fixed-path interferometer
Mole fraction of 3,6-dioxa-1-decanol	Speed of sound, m/s	uncertainty
0.0052	1215.5	2.1
0.0133	1218.1	2.1
0.0295	1223	2.1
0.0505	1228.7	2.1
0.0779	1236.9	2.1
0.1487	1256.7	2.1
0.2053	1272.3	2.1
0.2645	1286.7	2.1
0.318	1298.6	2.1
0.378	1310.2	2.1
0.4304	1319.4	2.1
0.4767	1326	2.1
0.5226	1331.6	2.1
0.5715	1336.8	2.1
0.6306	1342.1	2.1
0.6855	1346.2	2.1
0.7347	1349.4	2.1
0.7728	1351.3	2.1
0.8152	1353.3	2.1
0.87	1355.9	2.1
0.9073	1356.7	2.1
0.9289	1357.7	2.1
0.9504	1358.3	2.1
0.9663	1358.5	2.1
0.9813	1358.7	2.1

System: propan-1-amine + diethylene glycol diethyl ether; phases: Liquid
Fixed: Pressure, kPa = 101
Fixed: Temperature, K = 298.15
Property: Speed of sound, m/s (Liquid); method: Sing-around technique in a fixed-path interferometer
Mole fraction of diethylene glycol diethyl ether	Speed of sound, m/s	uncertainty
0.0035	1214.7	2.1
0.0108	1214.5	2.1
0.025	1214	2.1
0.0591	1214.1	2.1
0.0865	1214.7	2.1
0.1134	1215.2	2.1
0.1662	1217.3	2.1
0.2091	1218.8	2.1
0.2738	1221.4	2.1
0.3214	1223.8	2.1
0.3658	1225.7	2.1
0.3939	1227	2.1
0.4846	1230.5	2.1
0.5313	1232.3	2.1
0.5713	1233.8	2.1
0.6319	1235.6	2.1
0.6754	1236.7	2.1
0.7192	1238.1	2.1
0.7754	1239.4	2.1
0.8066	1240.1	2.1
0.8729	1241.7	2.1
0.9037	1242.1	2.1
0.9238	1242.2	2.1
0.9448	1242.3	2.1
0.9638	1242.4	2.1
0.9835	1242.5	2.1
0.9916	1242.2	2.1

System: propan-1-amine + 5,8,11-trioxapentadecane; phases: Liquid
Fixed: Pressure, kPa = 101
Fixed: Temperature, K = 298.15
Property: Speed of sound, m/s (Liquid); method: Sing-around technique in a fixed-path interferometer
Mole fraction of 5,8,11-trioxapentadecane	Speed of sound, m/s	uncertainty
0.0033	1215.3	2.1
0.0114	1215.5	2.1
0.033	1217.3	2.1
0.0476	1218.4	2.1
0.0724	1221	2.1
0.0955	1222.8	2.1
0.139	1227.3	2.1
0.1781	1231.7	2.1
0.2413	1237.2	2.1
0.3004	1242	2.1
0.3569	1245.8	2.1
0.4169	1249.5	2.1
0.4689	1251.9	2.1
0.5355	1255.2	2.1
0.5925	1258.2	2.1
0.6493	1260.8	2.1
0.6979	1262.9	2.1
0.7548	1264.7	2.1
0.8153	1266.6	2.1
0.8686	1268.2	2.1
0.9	1269	2.1
0.9241	1269.5	2.1
0.9526	1269.9	2.1
0.977	1270.1	2.1
0.991	1270.3	2.1
