Measured thermophysical data. Thermodynamic and Acoustic Properties of 1,3-Dibromopropane and 1,5-Dibromopentane within the Temperature Range From 293K to 313K at Pressures up to 100MPa
Source: Int. J. Thermophys., 2010, 10.1007/s10765-009-0610-6
Compound 1: 1,5-dibromopentane, C5H10Br2, InChI=1S/C5H10Br2/c6-4-2-1-3-5-7/h1-5H2, purity 99%
Compound 2: 1,3-dibromopropane, C3H6Br2, InChI=1S/C3H6Br2/c4-2-1-3-5/h1-3H2, purity 99%

System: 1,5-dibromopentane; phases: Liquid
Property: Speed of sound, m/s (Liquid); method: Pulse-echo method
Temperature, K	Pressure, kPa	Speed of sound, m/s	uncertainty
292.38	100	1149.48	1.2
292.47	91200	1353.98	2.39
292.48	30400	1226.21	2.33
292.5	45600	1260.76	2.34
292.52	60800	1293.37	2.36
292.53	15210	1189.09	2.32
292.57	101320	1372.23	2.4
292.59	76010	1324.36	2.37
298	60800	1281.15	2.36
298	91200	1342.44	2.39
298	101330	1361.63	2.4
298.01	45600	1247.97	2.34
298.02	30410	1212.72	2.33
298.03	15210	1174.79	2.32
298.05	76000	1312.6	2.4
298.37	100	1133.01	1.19
303	76000	1301.95	2.37
303.01	15200	1162.07	2.32
303.01	30400	1200.58	2.33
303.01	60790	1270.04	2.36
303.01	91200	1331.8	2.4
303.01	101340	1350.72	2.4
303.02	45600	1236.47	2.34
303.4	100	1119.29	1.19
308.03	15210	1148.74	2.32
308.03	30410	1187.74	2.33
308.03	45590	1223.97	2.34
308.05	101330	1340.01	2.4
308.06	60790	1257.88	2.36
308.06	76000	1290.08	2.37
308.06	91200	1320.46	2.39
308.38	100	1105.79	1.19
313.14	76030	1279.29	2.37
313.16	91210	1310.12	2.39
313.16	101330	1329.99	2.4
313.17	45610	1212.35	2.34
313.18	60800	1246.82	2.36
313.2	15210	1135.8	2.3
313.2	30410	1175.46	2.33
314.36	100	1089.74	1.19

System: 1,3-dibromopropane; phases: Liquid
Fixed: Pressure, kPa = 101.325
Property: Mass density, kg/m3 (Liquid); method: Vibrating tube method
Temperature, K	Mass density, kg/m3	uncertainty
292.55	1980.22	1.21
297.98	1970.22	1.2
303.07	1961.58	1.19
308.02	1952.84	1.18
314.58	1941.18	1.17

System: 1,3-dibromopropane; phases: Liquid
Property: Speed of sound, m/s (Liquid); method: Pulse-echo method
Temperature, K	Pressure, kPa	Speed of sound, m/s	uncertainty
292.66	100	1078.91	1.18
292.72	15200	1114.42	2.32
292.78	30400	1148.59	2.32
292.79	45600	1180.55	2.33
292.8	60810	1210.75	2.34
292.8	91220	1265.8	2.4
292.82	76010	1239.13	2.36
292.83	101350	1283	2
298.03	76000	1227.51	2.36
298.04	45600	1167.82	2.33
298.04	60810	1198.54	2.35
298.04	91210	1254.97	2.37
298.05	30400	1135.12	2.32
298.07	15210	1100.13	2.32
298.08	101330	1272.43	2.38
298.61	100	1062.56	1.18
302.95	15210	1087.38	2.31
302.95	30410	1122.97	2.32
302.95	45600	1156.12	2.33
302.95	60790	1187.19	2.34
302.95	76010	1216.7	2.4
302.95	91220	1244.54	2.37
302.95	101350	1262.26	2.38
303.58	100	1049.01	1.18
308.04	76010	1205.62	2.36
308.04	91210	1233.73	2.37
308.04	101350	1251.75	2.38
308.05	15210	1074.31	2.31
308.05	30410	1110.48	2.32
308.05	45620	1144.2	2.3
308.05	60820	1175.81	2.34
308.67	100	1035.28	1.18
313.41	15230	1060.73	2.31
313.41	30410	1097.53	2.32
313.41	45610	1131.74	2.33
313.41	60800	1163.81	2.35
313.41	76010	1194.03	2.36
313.42	91200	1222.6	2.4
313.42	101330	1240.83	2.38
314.7	100	1019.02	1.17
