Measured thermophysical data. Viscosity of Molten Alkaline-Earth Fluorides
Source: Int. J. Thermophys., 2015, 10.1007/s10765-014-1828-5
Compound 1: magnesium difluoride, F2Mg, InChI=1S/2FH.Mg/h2*1H;/q;;+2/p-2
Compound 2: calcium fluoride, CaF2, InChI=1S/Ca.2FH/h;2*1H/q+2;;/p-2
Compound 3: strontium fluoride, F2Sr, InChI=1S/2FH.Sr/h2*1H;/q;;+2/p-2
Compound 4: barium difluoride, BaF2, InChI=1S/Ba.2FH/h;2*1H/q+2;;/p-2

System: magnesium difluoride; phases: Liquid
Fixed: Pressure, kPa = 101.325
Property: Viscosity, Pa*s (Liquid); method: Oscillating crucible method
Temperature, K	Viscosity, Pa*s	uncertainty
1716.7	0.001763	5.7e-05
1673.9	0.001895	6.1e-05
1633.2	0.002036	6.5e-05
1751	0.00168	5.4e-05
1792.8	0.001588	5.2e-05
1831.8	0.001552	5.1e-05
1853.2	0.001448	4.8e-05
1814.2	0.001602	5.2e-05
1773	0.001632	5.3e-05
1731	0.001758	5.7e-05
1690.6	0.001784	5.7e-05
1653.4	0.00198	6.3e-05
1613.7	0.002081	6.6e-05
1574.1	0.00209	6.6e-05
1554.7	0.002257	7.1e-05
1534.7	0.00225	7.1e-05
1514.7	0.002416	7.6e-05

System: calcium fluoride; phases: Liquid
Fixed: Pressure, kPa = 101.325
Property: Viscosity, Pa*s (Liquid); method: Oscillating crucible method
Temperature, K	Viscosity, Pa*s	uncertainty
1760.6	0.002562	8e-05
1780.9	0.002476	7.8e-05
1800.8	0.002408	7.6e-05
1820.5	0.00234	7.4e-05
1839.9	0.002268	7.1e-05
1858.7	0.002185	6.9e-05
1868.1	0.002149	6.8e-05
1847.7	0.002223	7e-05
1832.8	0.002265	7.1e-05
1807.3	0.002371	7.4e-05
1790.5	0.002432	7.6e-05
1770.5	0.002542	7.9e-05
1761.2	0.002586	8.1e-05
1751.6	0.002623	8.2e-05
1742.2	0.002657	8.3e-05
1732.2	0.002735	8.5e-05
1722.7	0.00277	8.6e-05
1713.5	0.00282	8.8e-05
1703.6	0.002878	9.6e-05
1703.3	0.002932	9.8e-05
1763.4	0.002571	8e-05

System: strontium fluoride; phases: Liquid
Fixed: Pressure, kPa = 101.325
Property: Viscosity, Pa*s (Liquid); method: Oscillating crucible method
Temperature, K	Viscosity, Pa*s	uncertainty
1749.8	0.002953	9.2e-05
1769	0.002866	8.9e-05
1788.6	0.002729	8.5e-05
1810.3	0.002628	8.2e-05
1826.5	0.002561	8e-05
1846.4	0.002449	7.7e-05
1864.6	0.002374	7.5e-05
1854.3	0.002405	7.5e-05
1833.2	0.002512	7.9e-05
1817.9	0.002584	8.1e-05
1796.9	0.002698	8.4e-05
1780.9	0.002804	8.7e-05
1762.4	0.002915	9e-05
1743.4	0.003023	9.3e-05
1852.2	0.002401	7.5e-05
1750.4	0.002972	9.2e-05

System: barium difluoride; phases: Liquid
Fixed: Pressure, kPa = 101.325
Property: Viscosity, Pa*s (Liquid); method: Oscillating crucible method
Temperature, K	Viscosity, Pa*s	uncertainty
1657.3	0.003309	0.000102
1697.5	0.002995	9.3e-05
1738.8	0.002766	8.6e-05
1779.4	0.00257	8e-05
1819.5	0.002368	7.4e-05
1860.1	0.002237	7.1e-05
1880.4	0.002172	6.9e-05
1842.3	0.0023	7.2e-05
1802.5	0.002461	7.7e-05
1763.4	0.002665	8.3e-05
1722.7	0.002899	9.1e-05
1682.7	0.003165	9.8e-05
1642.3	0.00346	0.000106
1723.2	0.002856	9e-05
1620.2	0.00356	0.000109
