Measured thermophysical data. Liquidus Temperatures and Thermodynamic Properties of the KCl KNO2, NaCl NaNO2, and KNO2 NaNO2 Systems
Source: Int. J. Thermophys., 2013, 10.1007/s10765-013-1468-1
Compound 1: sodium chloride, ClNa, InChI=1S/ClH.Na/h1H;/q;+1/p-1
Compound 2: sodium nitrite, NNaO2, InChI=1S/HNO2.Na/c2-1-3;/h(H,2,3);/q;+1/p-1

System: sodium nitrite + sodium chloride; phases: Crystal, Crystal, Liquid, Air at 1 atmosphere
Property: Eutectic temperature, K (Crystal); method: Derived from phase diagram analysis
Eutectic temperature, K	uncertainty
543.48	6

System: sodium nitrite + sodium chloride; phases: Crystal, Crystal, Liquid, Air at 1 atmosphere
Property: Eutectic composition: mole fraction of sodium nitrite (Crystal); method: Derived from phase diagram analysis
Eutectic composition: mole fraction of sodium nitrite	uncertainty
0.93	0.02

System: sodium nitrite + sodium chloride; phases: Liquid, Crystal
Property: Solid-liquid equilibrium temperature, K (Liquid); method: DTA
Mole fraction of sodium nitrite	Pressure, kPa	Solid-liquid equilibrium temperature, K	uncertainty
0.792	101	670.61	6.01

System: sodium nitrite + sodium chloride; phases: Liquid, Crystal
Property: Solid-liquid equilibrium temperature, K (Liquid); method: DTA
Mole fraction of sodium nitrite	Pressure, kPa	Solid-liquid equilibrium temperature, K	uncertainty
0.966	101	559.84	6.01
