Measured thermophysical data. A New Empirical Equation for the Specific Thermal Capacity of Aqueous LiCl Solutions in a Wide Range of Conditions
Source: Int. J. Thermophys., 2019, 10.1007/s10765-019-2558-5
Compound 1: lithium chloride, ClLi, InChI=1S/ClH.Li/h1H;/q;+1/p-1
Compound 2: water, H2O, InChI=1S/H2O/h1H2, purity 99.8%

System: water; phases: Liquid
Fixed: Pressure, kPa = 101
Property: Molar heat capacity at constant pressure, J/K/mol (Liquid); method: DSC
Temperature, K	Molar heat capacity at constant pressure, J/K/mol	uncertainty
308.15	76.27669552	2.95450592
313.15	76.2947108	2.95450592
318.15	76.25868024	2.95450592
323.15	76.27669552	2.95450592
328.15	76.2046344	2.8824448
333.15	76.31272608	2.95450592
338.15	76.31272608	2.95450592
343.15	76.40280248	2.95450592

System: lithium chloride + water; phases: Liquid
Fixed: Pressure, kPa = 101
Property: Molar heat capacity at constant pressure, J/K/mol (Liquid); method: DSC
Mass fraction of lithium chloride	Temperature, K	Molar heat capacity at constant pressure, J/K/mol	uncertainty
0.1502	263.15	68.3439831591785	2.64226593864106
0.1502	268.15	68.6397591970861	2.66198434116823
0.1502	273.15	68.5017303793959	2.66198434116823
0.1502	278.15	68.6989144046676	2.66198434116823
0.1502	283.15	68.8369432223578	2.66198434116823
0.1502	288.15	68.7777880147763	2.66198434116823
0.1502	293.15	68.6989144046676	2.66198434116823
0.1502	298.15	68.5411671844502	2.66198434116823
0.1502	303.15	68.6791960021404	2.66198434116823
0.2002	243.15	63.3982872670227	2.46345303767172
0.2002	248.15	64.3144474876444	2.48381215368554
0.2002	253.15	65.1695303602247	2.52453038571317
0.2002	258.15	65.5970717965148	2.54488950172699
0.2002	263.15	65.9635358847635	2.54488950172699
0.2002	268.15	66.0653314648326	2.5652486177408
0.2002	273.15	66.2892817409846	2.5652486177408
0.2002	278.15	66.4114364370675	2.5652486177408
0.2002	283.15	66.7168231772747	2.58560773375462
0.2002	288.15	66.9611325694405	2.58560773375462
0.2002	293.15	67.1036463815372	2.60596684976844
0.2002	298.15	67.0832872655234	2.60596684976844
0.2002	303.15	67.347955773703	2.60596684976844
0.2496	233.15	59.2538720355609	2.2927483322244
0.2496	238.15	59.990075628477	2.33481710896246
0.2496	243.15	60.705244833024	2.35585149733149
0.2496	248.15	61.2521389306188	2.37688588570053
0.2496	253.15	61.7990330282137	2.39792027406956
0.2496	258.15	62.4090302909156	2.41895466243859
0.2496	263.15	62.8717868350342	2.43998905080762
0.2496	268.15	63.4186809326291	2.46102343917665
0.2496	273.15	63.8183343116407	2.48205782754568
0.2496	278.15	64.1338501371761	2.48205782754568
0.2496	283.15	64.5124691278187	2.50309221591471
0.2496	288.15	64.8279849533541	2.50309221591471
0.2496	293.15	65.1014320021516	2.52412660428374
0.2496	298.15	65.3538446625799	2.52412660428374
0.2496	303.15	65.6903948764844	2.54516099265277
0.2991	233.15	57.8532014237909	2.24102284567524
0.2991	238.15	58.9410765915944	2.28453785238738
0.2991	243.15	59.6590742023448	2.30629535574345
0.2991	248.15	60.3988293164511	2.34981036245559
0.2991	253.15	61.0080394104211	2.37156786581166
0.2991	258.15	61.4867044842547	2.37156786581166
0.2991	263.15	61.9871270614443	2.39332536916773
0.2991	268.15	62.3787621218535	2.4150828725238
0.2991	273.15	62.7486396789067	2.43684037587987
0.2991	278.15	63.2055472493842	2.45859787923594
0.2991	283.15	63.771242336642	2.48035538259201
0.2991	288.15	64.0976048869831	2.48035538259201
0.2991	293.15	64.4674824440363	2.50211288594808
0.2991	298.15	64.7503299876652	2.50211288594808
0.2991	303.15	65.0331775312941	2.52387038930415
0.3498	263.15	62.0168178320974	2.41301800292161
0.3498	268.15	62.6482617954788	2.43556957304237
0.3498	273.15	62.8061227863241	2.43556957304237
0.3498	278.15	63.2346026186186	2.45812114316313
0.3498	283.15	63.6179793106716	2.45812114316313
0.3498	288.15	63.8434950118792	2.4806727132839
0.3498	293.15	64.0464591429661	2.4806727132839
0.3498	298.15	64.1141138533284	2.4806727132839
0.3498	303.15	64.4523874051398	2.50322428340466
0.3995	283.15	64.0138305181856	2.47916186880806
0.3995	288.15	64.0372188377026	2.47916186880806
0.3995	293.15	64.1073837962538	2.47916186880806
0.3995	298.15	64.2944903523903	2.47916186880806
0.3995	303.15	64.4348202694926	2.50255018832512
