Measured thermophysical data. Isentropic Compressibilities Changes of Mixing of Tetrahydropyran and Aromatic Hydrocarbons  Ternary Mixtures at 308.15 K
Source: Int. J. Thermophys., 2011, 10.1007/s10765-011-0997-8
Compound 1: tetrahydropyran, C5H10O, InChI=1S/C5H10O/c1-2-4-6-5-3-1/h1-5H2, purity 99%
Compound 2: benzene, C6H6, InChI=1S/C6H6/c1-2-4-6-5-3-1/h1-6H, purity 99%
Compound 3: toluene, C7H8, InChI=1S/C7H8/c1-7-5-3-2-4-6-7/h2-6H,1H3, purity 99.5%
Compound 4: 1,2-dimethylbenzene, C8H10, InChI=1S/C8H10/c1-7-5-3-4-6-8(7)2/h3-6H,1-2H3, purity 99.7%
Compound 5: 1,4-dimethylbenzene, C8H10, InChI=1S/C8H10/c1-7-3-5-8(2)6-4-7/h3-6H,1-2H3, purity 99.7%

System: tetrahydropyran; phases: Liquid
Property: Speed of sound, m/s (Liquid); method: Linear variable-path acoustic interferometer
Temperature, K	Pressure, kPa	Speed of sound, m/s	uncertainty
298.15	101.325	1272	3

System: tetrahydropyran; phases: Liquid
Property: Mass density, kg/m3 (Liquid); method: Pycnometric method
Temperature, K	Pressure, kPa	Mass density, kg/m3	uncertainty
308.15	101.325	868.81	0.49

System: benzene; phases: Liquid
Property: Speed of sound, m/s (Liquid); method: Linear variable-path acoustic interferometer
Temperature, K	Pressure, kPa	Speed of sound, m/s	uncertainty
298.15	101.325	1298	3

System: benzene; phases: Liquid
Property: Mass density, kg/m3 (Liquid); method: Pycnometric method
Temperature, K	Pressure, kPa	Mass density, kg/m3	uncertainty
298.15	101.325	873.64	0.46

System: toluene; phases: Liquid
Property: Speed of sound, m/s (Liquid); method: Linear variable-path acoustic interferometer
Temperature, K	Pressure, kPa	Speed of sound, m/s	uncertainty
298.15	101.325	1303	2

System: toluene; phases: Liquid
Property: Mass density, kg/m3 (Liquid); method: Pycnometric method
Temperature, K	Pressure, kPa	Mass density, kg/m3	uncertainty
298.15	101.325	862.22	0.31

System: 1,2-dimethylbenzene; phases: Liquid
Property: Speed of sound, m/s (Liquid); method: Linear variable-path acoustic interferometer
Temperature, K	Pressure, kPa	Speed of sound, m/s	uncertainty
298.15	101.325	1346	2

System: 1,2-dimethylbenzene; phases: Liquid
Property: Mass density, kg/m3 (Liquid); method: Pycnometric method
Temperature, K	Pressure, kPa	Mass density, kg/m3	uncertainty
298.15	101.325	875.9	0.28

System: 1,4-dimethylbenzene; phases: Liquid
Property: Speed of sound, m/s (Liquid); method: Linear variable-path acoustic interferometer
Temperature, K	Pressure, kPa	Speed of sound, m/s	uncertainty
298.15	101.325	1310	2

System: 1,4-dimethylbenzene; phases: Liquid
Property: Mass density, kg/m3 (Liquid); method: Pycnometric method
Temperature, K	Pressure, kPa	Mass density, kg/m3	uncertainty
298.15	101.325	856.65	0.28

System: benzene + toluene + tetrahydropyran; phases: Liquid
Fixed: Temperature, K = 308.15
Fixed: Pressure, kPa = 101.325
Property: Speed of sound, m/s (Liquid); method: Linear variable-path acoustic interferometer
Mole fraction of tetrahydropyran	Mole fraction of benzene	Speed of sound, m/s	uncertainty
0.0891	0.7651	1227	3
0.1012	0.6461	1185	3
0.1221	0.6431	1164	3
0.1631	0.6321	1137	3
0.1864	0.1212	1167	2
0.2011	0.0821	1190	2
0.2142	0.0579	1204	2
0.2231	0.0813	1187	2
0.2514	0.1132	1158	2
0.2813	0.1412	1125	2
0.3152	0.1136	1150	2
0.3313	0.1242	1135	2
0.3412	0.1414	1112	2
0.3613	0.4316	1015	3
0.3712	0.4416	1040	3
0.4162	0.1125	1139	2
0.4414	0.0972	1169	3
0.4912	0.3332	1028	3
0.5199	0.0562	1196	3
0.5552	0.0876	1152	3
0.6712	0.1719	1087	3
0.7113	0.1213	1119	3
0.7314	0.1113	1132	3
0.7821	0.0912	1161	3
0.7851	0.0841	1164	3
0.8212	0.0614	1184	3

System: benzene + 1,2-dimethylbenzene + tetrahydropyran; phases: Liquid
Fixed: Temperature, K = 308.15
Fixed: Pressure, kPa = 101.325
Property: Speed of sound, m/s (Liquid); method: Linear variable-path acoustic interferometer
Mole fraction of tetrahydropyran	Mole fraction of benzene	Speed of sound, m/s	uncertainty
0.0512	0.8561	1313	3
0.0634	0.8561	1298	3
0.0712	0.3198	1439	3
0.1234	0.6876	1380	3
0.1574	0.6214	1403	3
0.1842	0.5713	1419	3
0.2021	0.5395	1429	3
0.2121	0.1098	1398	3
0.2534	0.4478	1455	3
0.2667	0.4256	1460	3
0.2889	0.3768	1471	3
0.3125	0.3217	1477	3
0.3216	0.3012	1477	3
0.3267	0.2889	1476	3
0.4214	0.5116	1266	3
0.4441	0.435	1314	3
0.4651	0.3789	1352	3
0.4876	0.3245	1382	3
0.5013	0.3013	1388	3
0.5456	0.2498	1385	3
0.5789	0.2145	1375	3
0.6134	0.1898	1359	3
0.6468	0.1689	1341	3
0.6814	0.1457	1322	3
0.7365	0.1146	1292	3
0.7598	0.1024	1279	3

System: benzene + 1,4-dimethylbenzene + tetrahydropyran; phases: Liquid
Fixed: Temperature, K = 308.15
Fixed: Pressure, kPa = 101.325
Property: Speed of sound, m/s (Liquid); method: Linear variable-path acoustic interferometer
Mole fraction of tetrahydropyran	Mole fraction of benzene	Speed of sound, m/s	uncertainty
0.0982	0.7999	1331	3
0.1524	0.7035	1365	3
0.1845	0.0752	1307	2
0.1935	0.6534	1373	3
0.212	0.0835	1306	2
0.238	0.0786	1298	2
0.2626	0.1035	1307	3
0.2886	0.1196	1313	3
0.3034	0.1237	1314	3
0.3211	0.482	1413	3
0.342	0.1233	1309	3
0.3826	0.1239	1307	3
0.3854	0.4234	1413	3
0.4321	0.0987	1278	3
0.4626	0.3542	1411	3
0.4765	0.1654	1373	3
0.4886	0.3101	1427	3
0.4964	0.1235	1319	3
0.5043	0.3221	1403	3
0.5132	0.3121	1404	3
0.6123	0.2102	1390	3
0.6214	0.1987	1386	3
0.6613	0.1442	1359	3
0.7123	0.1234	1335	3
0.7899	0.0723	1290	3

System: 1,4-dimethylbenzene + toluene + tetrahydropyran; phases: Liquid
Fixed: Temperature, K = 308.15
Fixed: Pressure, kPa = 101.325
Property: Speed of sound, m/s (Liquid); method: Linear variable-path acoustic interferometer
Mole fraction of tetrahydropyran	Mole fraction of toluene	Speed of sound, m/s	uncertainty
0.0992	0.7531	1307	2
0.1033	0.7451	1308	2
0.1332	0.7014	1313	3
0.2177	0.5125	1356	3
0.2444	0.4613	1367	3
0.2612	0.4413	1370	3
0.2967	0.0538	1286	2
0.3125	0.0592	1285	2
0.3314	0.0621	1284	2
0.3621	0.0723	1283	2
0.4011	0.0662	1277	2
0.4413	0.0823	1280	3
0.4821	0.0999	1290	3
0.5043	0.1015	1292	3
0.5281	0.4105	1207	3
0.5313	0.4022	1211	3
0.5523	0.3819	1213	3
0.5812	0.3422	1226	3
0.6321	0.3121	1218	3
0.6332	0.2144	1301	3
0.6512	0.2514	1259	3
0.6676	0.2021	1287	3
0.6894	0.1866	1282	3
0.7021	0.1721	1283	3
0.7313	0.1454	1279	3
0.7517	0.1213	1276	3

System: 1,2-dimethylbenzene + toluene + tetrahydropyran; phases: Liquid
Fixed: Temperature, K = 308.15
Fixed: Pressure, kPa = 101.325
Property: Speed of sound, m/s (Liquid); method: Linear variable-path acoustic interferometer
Mole fraction of tetrahydropyran	Mole fraction of toluene	Speed of sound, m/s	uncertainty
0.1098	0.8145	1282	2
0.1486	0.7442	1300	2
0.1652	0.7215	1304	3
0.1889	0.682	1314	3
0.2123	0.6524	1319	3
0.2612	0.0654	1340	3
0.2713	0.0698	1341	3
0.2881	0.075	1341	3
0.3001	0.0805	1342	3
0.3211	0.0912	1344	3
0.3447	0.1041	1346	3
0.3621	0.116	1349	3
0.3811	0.1301	1353	3
0.4023	0.1512	1359	3
0.4233	0.1723	1364	3
0.4492	0.2151	1370	3
0.4635	0.2551	1369	3
0.4799	0.2889	1358	3
0.4923	0.3001	1349	3
0.4992	0.3038	1344	3
0.5003	0.3024	1344	3
0.5123	0.303	1337	3
0.5132	0.3048	1336	3
0.5631	0.2776	1318	3
0.5911	0.2612	1307	3
0.6321	0.2342	1293	3
0.7231	0.1735	1263	3
