Measured thermophysical data. Thermodynamic Properties of Matrine in Ethanol
Source: Int. J. Thermophys., 2011, 10.1007/s10765-011-0987-x
Compound 1: matridin-15-one, C15H24N2O, InChI=1S/C15H24N2O/c18-14-7-1-6-13-12-5-3-9-16-8-2-4-11(15(12)16)10-17(13)14/h11-13,15H,1-10H2/t11-,12+,13+,15-/m0/s1
Compound 2: ethanol, C2H6O, InChI=1S/C2H6O/c1-2-3/h3H,2H2,1H3

System: ethanol + matridin-15-one; phases: Liquid
Property: Molar enthalpy of solution, kJ/mol (Liquid); method: Calvet calorimetry
Mole fraction of matridin-15-one	Temperature, K	Pressure, kPa	Molar enthalpy of solution, kJ/mol	uncertainty
0	309.65	101	-12.36	0.73
