Measured thermophysical data. Kinematic Viscosities for Ether + Alkane Mixtures: Experimental Results and UNIFAC-VISCO Parameters
Source: Int. J. Thermophys., 2008, 10.1007/s10765-007-0346-0
Compound 1: diisopropyl ether, C6H14O, InChI=1S/C6H14O/c1-5(2)7-6(3)4/h5-6H,1-4H3
Compound 2: dibutyl ether, C8H18O, InChI=1S/C8H18O/c1-3-5-7-9-8-6-4-2/h3-8H2,1-2H3
Compound 3: 2-methoxy-2-methylpropane, C5H12O, InChI=1S/C5H12O/c1-5(2,3)6-4/h1-4H3
Compound 4: 3-methylpentane, C6H14, InChI=1S/C6H14/c1-4-6(3)5-2/h6H,4-5H2,1-3H3
Compound 5: hexane, C6H14, InChI=1S/C6H14/c1-3-5-6-4-2/h3-6H2,1-2H3
Compound 6: heptane, C7H16, InChI=1S/C7H16/c1-3-5-7-6-4-2/h3-7H2,1-2H3

System: diisopropyl ether; phases: Liquid
Fixed: Pressure, kPa = 101.325
Property: Kinematic viscosity, m2/s (Liquid); method: Capillary tube (Ostwald; Ubbelohde) method
Temperature, K	Kinematic viscosity, m2/s	uncertainty
283.15	4.959e-07	4.3e-09
298.15	4.392e-07	3.8e-09
313.15	3.861e-07	3.5e-09

System: dibutyl ether; phases: Liquid
Fixed: Pressure, kPa = 101.325
Property: Kinematic viscosity, m2/s (Liquid); method: Capillary tube (Ostwald; Ubbelohde) method
Temperature, K	Kinematic viscosity, m2/s	uncertainty
283.15	1.0295e-06	8.2e-09
298.15	8.563e-07	6.9e-09
313.15	7.187e-07	5.9e-09

System: 2-methoxy-2-methylpropane; phases: Liquid
Fixed: Pressure, kPa = 101.325
Property: Kinematic viscosity, m2/s (Liquid); method: Capillary tube (Ostwald; Ubbelohde) method
Temperature, K	Kinematic viscosity, m2/s	uncertainty
283.15	5.191e-07	3.7e-09
298.15	4.529e-07	3.3e-09
313.15	3.961e-07	3e-09

System: 3-methylpentane; phases: Liquid
Fixed: Pressure, kPa = 101.325
Property: Kinematic viscosity, m2/s (Liquid); method: Capillary tube (Ostwald; Ubbelohde) method
Temperature, K	Kinematic viscosity, m2/s	uncertainty
283.15	4.928e-07	4.2e-09
298.15	4.366e-07	3.8e-09
313.15	3.881e-07	3.5e-09

System: hexane; phases: Liquid
Fixed: Pressure, kPa = 101.325
Property: Kinematic viscosity, m2/s (Liquid); method: Capillary tube (Ostwald; Ubbelohde) method
Temperature, K	Kinematic viscosity, m2/s	uncertainty
283.15	5.125e-07	4.4e-09
298.15	4.493e-07	3.9e-09
313.15	4.039e-07	3.6e-09

System: heptane; phases: Liquid
Fixed: Pressure, kPa = 101.325
Property: Kinematic viscosity, m2/s (Liquid); method: Capillary tube (Ostwald; Ubbelohde) method
Temperature, K	Kinematic viscosity, m2/s	uncertainty
283.15	6.697e-07	5.5e-09
298.15	5.754e-07	4.8e-09
313.15	4.986e-07	4.3e-09

System: 3-methylpentane + diisopropyl ether; phases: Liquid
Fixed: Pressure, kPa = 101
Property: Kinematic viscosity, m2/s (Liquid); method: Capillary tube (Ostwald; Ubbelohde) method
Temperature, K	Mole fraction of diisopropyl ether	Kinematic viscosity, m2/s	uncertainty
283.15	0	4.928e-07	4.3e-09
283.15	0.0498	4.914e-07	4.3e-09
283.15	0.1011	4.903e-07	4.3e-09
283.15	0.201	4.886e-07	4.3e-09
283.15	0.3018	4.877e-07	4.3e-09
283.15	0.4014	4.871e-07	4.2e-09
283.15	0.501	4.876e-07	4.3e-09
283.15	0.5993	4.883e-07	4.3e-09
283.15	0.6973	4.897e-07	4.3e-09
283.15	0.8014	4.912e-07	4.3e-09
283.15	0.8997	4.934e-07	4.3e-09
283.15	0.9501	4.947e-07	4.3e-09
283.15	1	4.959e-07	4.3e-09
298.15	0	4.366e-07	3.9e-09
298.15	0.0498	4.364e-07	3.9e-09
298.15	0.1011	4.355e-07	3.9e-09
298.15	0.201	4.348e-07	3.9e-09
298.15	0.3018	4.342e-07	3.9e-09
298.15	0.4014	4.339e-07	3.9e-09
298.15	0.501	4.338e-07	3.9e-09
298.15	0.5993	4.344e-07	3.9e-09
298.15	0.6973	4.352e-07	3.9e-09
298.15	0.8014	4.366e-07	3.9e-09
298.15	0.8997	4.377e-07	3.9e-09
298.15	0.9501	4.385e-07	3.9e-09
298.15	1	4.392e-07	3.9e-09
313.15	0	3.881e-07	3.5e-09
313.15	0.0498	3.872e-07	3.5e-09
313.15	0.1011	3.861e-07	3.5e-09
313.15	0.201	3.847e-07	3.5e-09
313.15	0.3018	3.837e-07	3.5e-09
313.15	0.4014	3.83e-07	3.5e-09
313.15	0.501	3.827e-07	3.5e-09
313.15	0.5993	3.831e-07	3.5e-09
313.15	0.6973	3.833e-07	3.5e-09
313.15	0.8014	3.842e-07	3.5e-09
313.15	0.8997	3.849e-07	3.5e-09
313.15	0.9501	3.854e-07	3.5e-09
313.15	1	3.861e-07	3.5e-09

System: diisopropyl ether + hexane; phases: Liquid
Fixed: Pressure, kPa = 101
Property: Kinematic viscosity, m2/s (Liquid); method: Capillary tube (Ostwald; Ubbelohde) method
Temperature, K	Mole fraction of diisopropyl ether	Kinematic viscosity, m2/s	uncertainty
283.15	0	5.125e-07	4.5e-09
283.15	0.0523	5.094e-07	4.4e-09
283.15	0.0915	5.076e-07	4.4e-09
283.15	0.189	5.031e-07	4.4e-09
283.15	0.3016	4.99e-07	4.3e-09
283.15	0.398	4.963e-07	4.3e-09
283.15	0.4998	4.944e-07	4.3e-09
283.15	0.6007	4.931e-07	4.3e-09
283.15	0.6975	4.932e-07	4.3e-09
283.15	0.7976	4.934e-07	4.3e-09
283.15	0.8959	4.945e-07	4.3e-09
283.15	0.9432	4.953e-07	4.3e-09
298.15	0	4.493e-07	4e-09
298.15	0.0523	4.477e-07	4e-09
298.15	0.0915	4.467e-07	4e-09
298.15	0.189	4.446e-07	3.9e-09
298.15	0.3016	4.426e-07	3.9e-09
298.15	0.398	4.409e-07	3.9e-09
298.15	0.4998	4.397e-07	3.9e-09
298.15	0.6007	4.383e-07	3.9e-09
298.15	0.6975	4.381e-07	3.9e-09
298.15	0.7976	4.381e-07	3.9e-09
298.15	0.8959	4.386e-07	3.9e-09
298.15	0.9432	4.385e-07	3.9e-09
313.15	0	4.039e-07	3.6e-09
313.15	0.0523	4.011e-07	3.6e-09
313.15	0.0915	3.994e-07	3.6e-09
313.15	0.189	3.961e-07	3.6e-09
313.15	0.3016	3.929e-07	3.6e-09
313.15	0.398	3.907e-07	3.6e-09
313.15	0.4998	3.889e-07	3.5e-09
313.15	0.6007	3.874e-07	3.5e-09
313.15	0.6975	3.866e-07	3.5e-09
313.15	0.7976	3.859e-07	3.5e-09
313.15	0.8959	3.856e-07	3.5e-09
313.15	0.9432	3.86e-07	3.5e-09

System: diisopropyl ether + heptane; phases: Liquid
Fixed: Pressure, kPa = 101
Property: Kinematic viscosity, m2/s (Liquid); method: Capillary tube (Ostwald; Ubbelohde) method
Temperature, K	Mole fraction of diisopropyl ether	Kinematic viscosity, m2/s	uncertainty
283.15	0	6.697e-07	5.7e-09
283.15	0.0508	6.578e-07	5.6e-09
283.15	0.1002	6.473e-07	5.5e-09
283.15	0.1986	6.265e-07	5.3e-09
283.15	0.2973	6.068e-07	5.2e-09
283.15	0.3992	5.88e-07	5e-09
283.15	0.4991	5.693e-07	4.9e-09
283.15	0.5979	5.533e-07	4.8e-09
283.15	0.7009	5.372e-07	4.6e-09
283.15	0.8008	5.215e-07	4.5e-09
283.15	0.8954	5.091e-07	4.4e-09
283.15	0.95	5.016e-07	4.4e-09
298.15	0	5.754e-07	5e-09
298.15	0.0508	5.658e-07	4.9e-09
298.15	0.1002	5.567e-07	4.8e-09
298.15	0.1986	5.387e-07	4.7e-09
298.15	0.2973	5.218e-07	4.5e-09
298.15	0.3992	5.055e-07	4.4e-09
298.15	0.4991	4.9e-07	4.3e-09
298.15	0.5979	4.779e-07	4.2e-09
298.15	0.7009	4.679e-07	4.1e-09
298.15	0.8008	4.588e-07	4.1e-09
298.15	0.8954	4.496e-07	4e-09
298.15	0.95	4.443e-07	3.9e-09
313.15	0	4.986e-07	4.4e-09
313.15	0.0508	4.91e-07	4.3e-09
313.15	0.1002	4.831e-07	4.3e-09
313.15	0.1986	4.719e-07	4.2e-09
313.15	0.2973	4.61e-07	4.1e-09
313.15	0.3992	4.498e-07	4e-09
313.15	0.4991	4.385e-07	3.9e-09
313.15	0.5979	4.273e-07	3.8e-09
313.15	0.7009	4.166e-07	3.7e-09
313.15	0.8008	4.058e-07	3.7e-09
313.15	0.8954	3.96e-07	3.6e-09
313.15	0.95	3.909e-07	3.6e-09

System: 3-methylpentane + dibutyl ether; phases: Liquid
Fixed: Pressure, kPa = 101
Property: Kinematic viscosity, m2/s (Liquid); method: Capillary tube (Ostwald; Ubbelohde) method
Temperature, K	Mole fraction of dibutyl ether	Kinematic viscosity, m2/s	uncertainty
283.15	0.0498	5.151e-07	4.4e-09
283.15	0.1011	5.383e-07	4.6e-09
283.15	0.1884	5.796e-07	4.9e-09
283.15	0.2989	6.32e-07	5.3e-09
283.15	0.4033	6.843e-07	5.6e-09
283.15	0.4999	7.344e-07	6e-09
283.15	0.5992	7.877e-07	6.4e-09
283.15	0.7016	8.46e-07	6.8e-09
283.15	0.799	9.03e-07	7.2e-09
283.15	0.9001	9.657e-07	7.7e-09
283.15	0.9496	9.979e-07	7.9e-09
298.15	0.0498	4.505e-07	3.9e-09
298.15	0.1011	4.655e-07	4e-09
298.15	0.1884	4.975e-07	4.3e-09
298.15	0.2989	5.415e-07	4.6e-09
298.15	0.4033	5.846e-07	4.9e-09
298.15	0.4999	6.244e-07	5.2e-09
298.15	0.5992	6.669e-07	5.5e-09
298.15	0.7016	7.116e-07	5.8e-09
298.15	0.799	7.548e-07	6.1e-09
298.15	0.9001	8.021e-07	6.5e-09
298.15	0.9496	8.257e-07	6.7e-09
313.15	0.0498	4.026e-07	3.6e-09
313.15	0.1011	4.176e-07	3.7e-09
313.15	0.1884	4.427e-07	3.9e-09
313.15	0.2989	4.712e-07	4.1e-09
313.15	0.4033	5.031e-07	4.3e-09
313.15	0.4999	5.374e-07	4.6e-09
313.15	0.5992	5.73e-07	4.8e-09
313.15	0.7016	6.088e-07	5.1e-09
313.15	0.799	6.442e-07	5.3e-09
313.15	0.9001	6.804e-07	5.6e-09
313.15	0.9496	6.992e-07	5.7e-09

System: hexane + dibutyl ether; phases: Liquid
Fixed: Pressure, kPa = 101
Property: Kinematic viscosity, m2/s (Liquid); method: Capillary tube (Ostwald; Ubbelohde) method
Temperature, K	Mole fraction of dibutyl ether	Kinematic viscosity, m2/s	uncertainty
283.15	0.0506	5.334e-07	4.6e-09
283.15	0.105	5.573e-07	4.8e-09
283.15	0.1974	5.962e-07	5.1e-09
283.15	0.2961	6.404e-07	5.4e-09
283.15	0.3967	6.883e-07	5.8e-09
283.15	0.4991	7.393e-07	6.2e-09
283.15	0.5974	7.897e-07	6.6e-09
283.15	0.7004	8.479e-07	7.1e-09
283.15	0.8272	9.2e-07	8e-09
283.15	0.9125	9.723e-07	8e-09
283.15	0.9514	9.985e-07	8.2e-09
298.15	0.0506	4.626e-07	4.1e-09
298.15	0.105	4.812e-07	4.2e-09
298.15	0.1974	5.131e-07	4.5e-09
298.15	0.2961	5.51e-07	4.8e-09
298.15	0.3967	5.884e-07	5.1e-09
298.15	0.4991	6.293e-07	5.4e-09
298.15	0.5974	6.69e-07	5.7e-09
298.15	0.7004	7.126e-07	6e-09
298.15	0.8272	7.686e-07	6.5e-09
298.15	0.9125	8.077e-07	6.8e-09
298.15	0.9514	8.287e-07	7e-09
313.15	0.0506	4.167e-07	3.7e-09
313.15	0.105	4.309e-07	3.8e-09
313.15	0.1974	4.53e-07	4e-09
313.15	0.2961	4.771e-07	4.2e-09
313.15	0.3967	5.079e-07	4.5e-09
313.15	0.4991	5.414e-07	4.7e-09
313.15	0.5974	5.757e-07	5e-09
313.15	0.7004	6.104e-07	5.3e-09
313.15	0.8272	6.552e-07	5.6e-09
313.15	0.9125	6.851e-07	5.9e-09
313.15	0.9514	7.017e-07	6e-09

System: heptane + dibutyl ether; phases: Liquid
Fixed: Pressure, kPa = 101
Property: Kinematic viscosity, m2/s (Liquid); method: Capillary tube (Ostwald; Ubbelohde) method
Temperature, K	Mole fraction of dibutyl ether	Kinematic viscosity, m2/s	uncertainty
283.15	0.0479	6.828e-07	5.8e-09
283.15	0.0951	6.97e-07	5.9e-09
283.15	0.1907	7.247e-07	6.1e-09
283.15	0.2992	7.599e-07	6.4e-09
283.15	0.399	7.945e-07	6.6e-09
283.15	0.4989	8.296e-07	6.9e-09
283.15	0.5993	8.666e-07	7.2e-09
283.15	0.6973	9.023e-07	7.5e-09
283.15	0.7993	9.451e-07	7.8e-09
283.15	0.8986	9.862e-07	8.2e-09
283.15	0.9501	1.0088e-06	8.3e-09
283.15	1	1.0295e-06	8.5e-09
298.15	0.0479	5.867e-07	5.1e-09
298.15	0.0951	5.979e-07	5.1e-09
298.15	0.1907	6.2e-07	5.3e-09
298.15	0.2992	6.468e-07	5.5e-09
298.15	0.399	6.723e-07	5.7e-09
298.15	0.4989	6.985e-07	5.9e-09
298.15	0.5993	7.269e-07	6.2e-09
298.15	0.6973	7.551e-07	6.4e-09
298.15	0.7993	7.861e-07	6.6e-09
298.15	0.8986	8.17e-07	6.9e-09
298.15	0.9501	8.332e-07	7e-09
298.15	1	8.563e-07	7.2e-09
313.15	0.0479	5.078e-07	4.5e-09
313.15	0.0951	5.17e-07	4.5e-09
313.15	0.1907	5.355e-07	4.7e-09
313.15	0.2992	5.579e-07	4.9e-09
313.15	0.399	5.79e-07	5e-09
313.15	0.4989	6.001e-07	5.2e-09
313.15	0.5993	6.225e-07	5.4e-09
313.15	0.6973	6.445e-07	5.5e-09
313.15	0.7993	6.687e-07	5.7e-09
313.15	0.8986	6.933e-07	5.9e-09
313.15	0.9501	7.051e-07	6e-09
313.15	1	7.187e-07	6.2e-09

System: 3-methylpentane + 2-methoxy-2-methylpropane; phases: Liquid
Fixed: Pressure, kPa = 101
Property: Kinematic viscosity, m2/s (Liquid); method: Capillary tube (Ostwald; Ubbelohde) method
Temperature, K	Mole fraction of 2-methoxy-2-methylpropane	Kinematic viscosity, m2/s	uncertainty
283.15	0.048	4.915e-07	4.2e-09
283.15	0.0967	4.906e-07	4.2e-09
283.15	0.1961	4.893e-07	4.1e-09
283.15	0.2982	4.895e-07	4e-09
283.15	0.3995	4.906e-07	3.9e-09
283.15	0.4983	4.923e-07	3.9e-09
283.15	0.5992	4.954e-07	3.8e-09
283.15	0.6984	4.995e-07	3.8e-09
283.15	0.7978	5.048e-07	3.8e-09
283.15	0.8996	5.113e-07	3.8e-09
283.15	0.9491	5.145e-07	3.8e-09
283.15	1	5.191e-07	3.8e-09
298.15	0.048	4.361e-07	3.8e-09
298.15	0.0967	4.357e-07	3.8e-09
298.15	0.1961	4.348e-07	3.7e-09
298.15	0.2982	4.347e-07	3.6e-09
298.15	0.3995	4.351e-07	3.6e-09
298.15	0.4983	4.361e-07	3.5e-09
298.15	0.5992	4.379e-07	3.5e-09
298.15	0.6984	4.406e-07	3.4e-09
298.15	0.7978	4.435e-07	3.4e-09
298.15	0.8996	4.478e-07	3.4e-09
298.15	0.9491	4.502e-07	3.4e-09
298.15	1	4.529e-07	3.4e-09
313.15	0.048	3.87e-07	3.5e-09
313.15	0.0967	3.859e-07	3.4e-09
313.15	0.1961	3.843e-07	3.4e-09
313.15	0.2982	3.836e-07	3.3e-09
313.15	0.3995	3.834e-07	3.2e-09
313.15	0.4983	3.836e-07	3.2e-09
313.15	0.5992	3.85e-07	3.1e-09
313.15	0.6984	3.863e-07	3.1e-09
313.15	0.7978	3.888e-07	3.1e-09
313.15	0.8996	3.918e-07	3.1e-09
313.15	0.9491	3.937e-07	3.1e-09
313.15	1	3.961e-07	3.1e-09

System: hexane + 2-methoxy-2-methylpropane; phases: Liquid
Fixed: Pressure, kPa = 101
Property: Kinematic viscosity, m2/s (Liquid); method: Capillary tube (Ostwald; Ubbelohde) method
Temperature, K	Mole fraction of 2-methoxy-2-methylpropane	Kinematic viscosity, m2/s	uncertainty
283.15	0.0479	5.097e-07	4.4e-09
283.15	0.0974	5.074e-07	4.3e-09
283.15	0.1983	5.034e-07	4.2e-09
283.15	0.2988	5.004e-07	4.1e-09
283.15	0.3979	4.99e-07	4e-09
283.15	0.4975	4.99e-07	3.9e-09
283.15	0.5974	4.996e-07	3.8e-09
283.15	0.6968	5.025e-07	3.8e-09
283.15	0.7911	5.059e-07	3.8e-09
283.15	0.8976	5.125e-07	3.8e-09
283.15	0.9486	5.147e-07	3.8e-09
298.15	0.0479	4.478e-07	3.9e-09
298.15	0.0974	4.465e-07	3.9e-09
298.15	0.1983	4.442e-07	3.8e-09
298.15	0.2988	4.427e-07	3.7e-09
298.15	0.3979	4.418e-07	3.6e-09
298.15	0.4975	4.413e-07	3.5e-09
298.15	0.5974	4.419e-07	3.5e-09
298.15	0.6968	4.431e-07	3.5e-09
298.15	0.7911	4.45e-07	3e-09
298.15	0.8976	4.484e-07	3.4e-09
298.15	0.9486	4.505e-07	3.4e-09
313.15	0.0479	4.017e-07	3.6e-09
313.15	0.0974	3.994e-07	3.5e-09
313.15	0.1983	3.96e-07	3.4e-09
313.15	0.2988	3.932e-07	3.4e-09
313.15	0.3979	3.91e-07	3.3e-09
313.15	0.4975	3.897e-07	3.2e-09
313.15	0.5974	3.895e-07	3.2e-09
313.15	0.6968	3.895e-07	3.1e-09
313.15	0.7911	3.913e-07	3.1e-09
313.15	0.8976	3.926e-07	3.1e-09
313.15	0.9486	3.94e-07	3.1e-09

System: heptane + 2-methoxy-2-methylpropane; phases: Liquid
Fixed: Pressure, kPa = 101
Property: Kinematic viscosity, m2/s (Liquid); method: Capillary tube (Ostwald; Ubbelohde) method
Temperature, K	Mole fraction of 2-methoxy-2-methylpropane	Kinematic viscosity, m2/s	uncertainty
283.15	0.0431	6.606e-07	5.5e-09
283.15	0.0987	6.512e-07	5.4e-09
283.15	0.1892	6.353e-07	5.2e-09
283.15	0.2958	6.168e-07	4.9e-09
283.15	0.3844	6.03e-07	4.7e-09
283.15	0.4986	5.845e-07	4.5e-09
283.15	0.6007	5.7e-07	4.3e-09
283.15	0.6999	5.567e-07	4.2e-09
283.15	0.7998	5.421e-07	4e-09
283.15	0.8997	5.298e-07	3.9e-09
283.15	0.9499	5.241e-07	3.8e-09
298.15	0.0431	5.683e-07	4.9e-09
298.15	0.0987	5.599e-07	4.7e-09
298.15	0.1892	5.461e-07	4.5e-09
298.15	0.2958	5.3e-07	4.3e-09
298.15	0.3844	5.169e-07	4.2e-09
298.15	0.4986	5.012e-07	4e-09
298.15	0.6007	4.881e-07	3.8e-09
298.15	0.6999	4.777e-07	3.7e-09
298.15	0.7998	4.68e-07	3.6e-09
298.15	0.8997	4.604e-07	3.5e-09
298.15	0.9499	4.566e-07	3.4e-09
313.15	0.0431	4.926e-07	4.3e-09
313.15	0.0987	4.862e-07	4.2e-09
313.15	0.1892	4.767e-07	4e-09
313.15	0.2958	4.658e-07	3.9e-09
313.15	0.3844	4.569e-07	3.7e-09
313.15	0.4986	4.454e-07	3.6e-09
313.15	0.6007	4.347e-07	3.4e-09
313.15	0.6999	4.246e-07	3.3e-09
313.15	0.7998	4.144e-07	3.2e-09
313.15	0.8997	4.047e-07	3.1e-09
313.15	0.9499	4.004e-07	3.1e-09
