Measured thermophysical data. Thermodynamic Properties of HFC-236ea
Source: Int. J. Thermophys., 2008, 10.1007/s10765-007-0369-6
Compound 1: 1,1,1,2,3,3-hexafluoropropane, C3H2F6, InChI=1S/C3H2F6/c4-1(2(5)6)3(7,8)9/h1-2H, purity 99.68%

System: 1,1,1,2,3,3-hexafluoropropane; phases: Liquid, Gas
Property: Vapor or sublimation pressure, kPa (Liquid); method: ISOPVT
Temperature, K	Vapor or sublimation pressure, kPa	uncertainty
293.15	172.4	3.1
294.08	178	3.1
298.15	206	3.1
303.15	244.2	3.1
308.15	288	3.1
313.15	337.2	3.1
313.15	337.5	3.1
318.15	392.6	3.2
323.15	455.2	3.2
333.15	602	3.2
333.15	602.5	3.2
343.16	783.2	3.3
350.15	932	3.3
353.15	1000.8	3.4
353.15	999.6	3.4
363.15	1263.5	3.4
363.15	1262.7	3.4
372.15	1537.2	3.5
373.15	1569.7	3.5
373.15	1570.9	3.6
381.15	1860.2	3.7
383.15	1935.9	3.8
391.15	2274.8	3.8
393.15	2362	3.9
393.15	2364.9	3.9
398.15	2605.2	4.1
403.15	2874.5	4.2
403.15	2871.5	4.2
408.15	3145.8	5
408.75	3197.6	4.5
411.08	3336	4.4
412.15	3397.2	4.4

System: 1,1,1,2,3,3-hexafluoropropane; phases: Liquid, Gas
Property: Mass density, kg/m3 (Liquid); method: ISOCHOR
Temperature, K	Mass density, kg/m3	uncertainty
299.06	1419.9	3
313.99	1370.9	3
323.94	1334.2	3
333.93	1297.6	3
343.94	1258.4	3
354.04	1215.2	3
364	1168.8	3
374.09	1115.9	3
384.01	1054.3	3
389.01	1018.7	3
394.04	978.8	3
399.06	931.5	3
404.12	870.6	3.1
409.01	782.6	3.1
411	719.3	3.4
411.95	656.8	4

System: 1,1,1,2,3,3-hexafluoropropane; phases: Gas, Liquid
Property: Mass density, kg/m3 (Gas); method: ISOCHOR
Temperature, K	Mass density, kg/m3	uncertainty
313.98	21.29	3
313.99	21.79	3
313.99	22.19	3
314.02	21.39	3
323.94	29.02	3
333.93	38.66	3
343.94	50.72	3
354.04	66.48	3
364	86.37	3
374.09	112.2	3
384.01	145.8	3
389.01	167.6	3
394.04	193.5	3
399.06	227.3	3
404.12	273.5	3
409.01	346.8	3.1
411	404.5	3.4
411.95	466.3	4

System: 1,1,1,2,3,3-hexafluoropropane; phases: Liquid
Property: Speed of sound, m/s (Liquid); method: Sing-around technique in a fixed-path interferometer
Temperature, K	Pressure, kPa	Speed of sound, m/s	uncertainty
263.15	49.75	731.68	1.22
263.15	68.24	731.18	1.22
263.15	2423.3	745.79	1.24
263.15	2456.6	746.18	1.24
273.15	77.8	690.8	1.2
273.15	78.27	689.15	1.16
273.15	138.04	689.2	1.2
273.15	1030.4	695.69	1.17
273.15	1032.8	696.07	1.17
273.15	2778.1	706.74	1.19
283.15	121.32	646.39	1.1
283.15	179.5	648.1	1.1
283.15	1466.4	657.74	1.16
283.15	1474.8	656.88	1.16
283.15	2291.9	664.66	1.13
283.15	2312.53	664.99	1.13
293.15	178.04	605.2	1.04
293.15	598.67	608.85	1.04
293.15	1239.3	614.23	1.05
293.15	2315.3	622.49	1.06
293.15	2334.3	622.49	1.06
303.15	244.45	565.1	1
303.15	244.78	564.91	0.98
303.15	1402.6	574.52	1
303.15	2117	581.26	1.01
313.15	342.52	523.8	0.9
313.15	1074.1	531.05	0.94
313.15	1079.4	531.01	0.94
313.15	2184.1	541.32	0.95
323.15	457.19	483.46	0.87
323.15	1681.8	496.45	0.89
323.15	3590.7	515.64	0.91
333.15	604.3	443.5	0.8
333.15	1716.4	456.53	0.83
333.15	2277.4	463.61	0.84
343.15	782.31	402.53	0.76
343.15	784.2	402.64	0.76
343.15	1978.4	419.03	0.78
343.15	2000.7	419.29	0.78
353.15	998.48	361.28	0.71
353.15	2242.2	380.73	0.73
363.15	1259.8	319.13	0.66
363.15	2753.1	348.82	0.71
373.15	1572.08	275.96	0.61
373.15	1572.19	276.01	0.61
373.15	2348.8	294.23	0.63
373.15	2955.1	307.1	0.64

System: 1,1,1,2,3,3-hexafluoropropane; phases: Gas
Property: Mass density, kg/m3 (Gas); method: ISOCHOR
Temperature, K	Pressure, kPa	Mass density, kg/m3	uncertainty
303.15	234.57	15.336	0.203
313.15	194.49	12.026	0.19
313.15	244.25	15.336	0.196
316.15	354.27	22.772	0.209
318.15	358.97	22.772	0.206
323.15	201.8	12.026	0.184
323.15	253.54	15.336	0.189
323.15	364.12	22.772	0.204
333.15	263	15.336	0.183
333.15	378.59	22.772	0.197
343.15	216.06	12.026	0.172
343.15	272.14	15.336	0.177
343.15	392.89	22.772	0.191
343.15	697.68	43.84	0.243
353.15	281.27	15.336	0.172
353.15	407.01	22.772	0.186
353.15	727.92	43.84	0.237
362.15	1224.7	81.424	0.348
363.15	230.21	12.026	0.162
363.15	420.93	22.772	0.181
363.15	757.83	43.84	0.232
363.15	1231.2	81.424	0.348
368.15	1262.8	81.424	0.345
373.15	299.63	15.336	0.163
373.15	434.79	22.772	0.176
373.15	787.41	43.84	0.227
373.15	1291.6	81.424	0.343
383.15	244.36	12.026	0.154
383.15	308.68	15.336	0.158
383.15	448.58	22.772	0.172
383.15	816.36	43.84	0.223
383.15	1080.9	61.019	0.273
383.15	1356.3	81.424	0.338
383.15	1643.7	106.72	0.42
390.36	2239.4	172.61	0.65
393.15	317.58	15.336	0.155
393.15	462.31	22.772	0.168
393.15	845.24	43.84	0.219
393.15	1123	61.019	0.269
393.15	1416.6	81.424	0.334
393.15	1729.6	106.72	0.42
393.15	2285.4	172.61	0.65
398.15	2367.3	172.61	0.64
400.64	2734.8	238.93	0.88
401.15	2339.1	218.65	0.82
403.15	258.22	12.026	0.146
403.15	326.48	15.336	0.151
403.15	475.88	22.772	0.164
403.15	873.62	43.84	0.215
403.15	1164.9	61.019	0.266
403.15	1475.5	81.424	0.33
403.15	1813.8	106.72	0.41
403.15	2447.1	172.61	0.64
403.15	2711.9	218.65	0.8
403.15	2794.9	238.93	0.88
405.65	2766.1	218.65	0.8
408.15	2525.7	172.61	0.64
408.15	2819	218.65	0.8
408.15	2916.3	238.93	0.87
410.65	2872	218.65	0.8
413.15	335.28	15.336	0.147
413.15	901.67	43.84	0.212
413.15	1205.9	61.019	0.262
413.15	1533.4	81.424	0.327
413.15	1895.9	106.72	0.41
413.15	2602.9	172.61	0.64
413.15	2924.5	218.65	0.8
413.15	3035.6	238.93	0.87
413.15	3285.4	305.22	1.11
413.15	3285.9	305.22	1.11
413.15	3398.7	375.42	1.36
414.98	3533.4	421.82	1.52
415.15	3580.6	501.79	1.81
415.65	2975.8	218.65	0.8
417.13	3696	501.79	1.81
417.15	3413.4	305.22	1.1
417.15	3639.3	421.82	1.52
418.15	2678.6	172.61	0.64
418.15	3027.2	218.65	0.8
418.15	3152.4	238.93	0.87
418.15	3616.7	375.42	1.35
419.06	3809.5	501.79	1.8
419.15	3477	305.22	1.1
419.15	3477.1	305.22	1.1
419.15	3735.8	421.82	1.52
419.48	3834.6	501.79	1.8
420.65	3078.6	218.65	0.8
421.15	3832.3	421.82	1.52
421.15	3931.4	501.79	1.8
423.15	272	12.026	0.139
423.15	341.11	15.336	0.145
423.15	502.99	22.772	0.158
423.15	929.58	43.84	0.209
423.15	1246.9	61.019	0.26
423.15	1591.4	81.424	0.324
423.15	1977.6	106.72	0.41
423.15	2754.2	172.61	0.63
423.15	3130	218.65	0.79
423.15	3268.2	238.93	0.87
423.15	3603.5	305.22	1.1
423.15	3822.7	375.42	1.35
423.15	3928.4	421.82	1.51
423.15	4048.7	501.79	1.8
