Measured thermophysical data. Density of Vapor and Liquid Pentafluorobenzene Along  the Saturation Line
Source: Int. J. Thermophys., 2010, 10.1007/s10765-010-0886-6
Compound 1: pentafluorobenzene, C6HF5, InChI=1S/C6HF5/c7-2-1-3(8)5(10)6(11)4(2)9/h1H, purity 99.8%

System: pentafluorobenzene; phases: Liquid, Gas
Property: Critical temperature, K (Liquid); method: gamma-densimeter
Critical temperature, K	uncertainty
531.04	0.2

System: pentafluorobenzene; phases: Liquid, Gas
Property: Mass density, kg/m3 (Liquid); method: gamma-densimeter
Temperature, K	Mass density, kg/m3	uncertainty
293.47	1525.2	3
314	1483.8	3
334	1441.8	3
353.98	1399.8	3
374.24	1353.6	3
393.95	1307.6	3
413.94	1257.5	3
433.98	1203	3
454.02	1142.5	3
473.98	1072.2	3
493.99	986.7	3
504.08	933.6	3.1
514.2	866.1	3.1
524.52	764.6	3.2

System: pentafluorobenzene; phases: Gas, Liquid
Property: Mass density, kg/m3 (Gas); method: gamma-densimeter
Temperature, K	Mass density, kg/m3	uncertainty
314	1.13	1
393.95	15.9	1.5
413.94	24.8	2
413.94	24.9	2
413.95	24.7	2
433.98	38.6	2.5
454.02	58.3	2.5
473.98	87.1	2.5
493.99	131.1	3
504.08	163.1	3
514.2	208.7	3.1
524.52	287.7	3.1
