Measured thermophysical data. Intercomparison of Thermophysical Property Measurements on Iron and Steels
Source: Int. J. Thermophys., 2019, 10.1007/s10765-019-2568-3
Compound 1: iron, Fe, InChI=1S/Fe, purity 99.99%

System: iron; phases: Crystal 4
Property: Mass density, kg/m3 (Crystal 4); method: unknown
Temperature, K	Pressure, kPa	Mass density, kg/m3	uncertainty
293	101.325	7849	6

System: iron; phases: Crystal 4
Fixed: Pressure, kPa = 100
Property: Molar heat capacity at constant pressure, J/K/mol (Crystal 4); method: DSC
Temperature, K	Molar heat capacity at constant pressure, J/K/mol	uncertainty
293.15	24.962715	1.619505
373.15	27.531585	1.507815
473.15	29.542005	1.67535
573.15	31.38489	1.954575
673.15	34.232985	2.066265
773.15	37.360305	2.2338
873.15	41.66037	2.513025
973.15	48.640995	3.3507

System: iron; phases: Crystal 3
Fixed: Pressure, kPa = 100
Property: Molar heat capacity at constant pressure, J/K/mol (Crystal 3); method: DSC
Temperature, K	Molar heat capacity at constant pressure, J/K/mol	uncertainty
1073.15	52.71768	3.964995
1173.15	42.21882	3.294855

System: iron; phases: Crystal 2
Property: Molar heat capacity at constant pressure, J/K/mol (Crystal 2); method: DSC
Temperature, K	Pressure, kPa	Molar heat capacity at constant pressure, J/K/mol	uncertainty
1273.15	100	33.61869	2.401335

System: iron; phases: Crystal 4
Fixed: Pressure, kPa = 100
Property: Thermal diffusivity, m2/s (Crystal 4); method: Laser flash apparatus
Temperature, K	Thermal diffusivity, m2/s	uncertainty
293.15	2.216e-05	1.18e-06
373.15	1.923e-05	1.06e-06
473.15	1.578e-05	8.2e-07
573.15	1.308e-05	6.7e-07
673.15	1.084e-05	5.5e-07
773.15	8.91e-06	4.6e-07
873.15	7.06e-06	3.5e-07
973.15	5.18e-06	2.8e-07

System: iron; phases: Crystal 3
Fixed: Pressure, kPa = 100
Property: Thermal diffusivity, m2/s (Crystal 3); method: Laser flash apparatus
Temperature, K	Thermal diffusivity, m2/s	uncertainty
1073.15	4.49e-06	2.4e-07
1173.15	5.27e-06	2.6e-07

System: iron; phases: Crystal 2
Property: Thermal diffusivity, m2/s (Crystal 2); method: Laser flash apparatus
Temperature, K	Pressure, kPa	Thermal diffusivity, m2/s	uncertainty
1273.15	100	6.33e-06	3.5e-07

System: iron; phases: Crystal 4
Fixed: Pressure, kPa = 100
Property: Thermal conductivity, W/m/K (Crystal 4); method: not specified
Temperature, K	Thermal conductivity, W/m/K	uncertainty
293.15	82.5	7
373.15	73.4	5.4
473.15	65.5	4.8
573.15	58.2	4.5
673.15	52	4.1
773.15	46.7	3.6
873.15	41.1	3
973.15	36.2	3.2

System: iron; phases: Crystal 3
Fixed: Pressure, kPa = 100
Property: Thermal conductivity, W/m/K (Crystal 3); method: not specified
Temperature, K	Thermal conductivity, W/m/K	uncertainty
1073.15	31.5	2.8
1173.15	30	3

System: iron; phases: Crystal 2
Property: Thermal conductivity, W/m/K (Crystal 2); method: not specified
Temperature, K	Pressure, kPa	Thermal conductivity, W/m/K	uncertainty
1273.15	100	28.4	2.8
