Measured thermophysical data. On the Way to Determination of the Vapor-Pressure Curve of Pure Water
Source: Int. J. Thermophys., 2012, 10.1007/s10765-012-1261-6
Compound 1: water, H2O, InChI=1S/H2O/h1H2

System: water; phases: Liquid, Gas
Property: Vapor or sublimation pressure, kPa (Liquid); method: Closed cell (Static) method
Temperature, K	Vapor or sublimation pressure, kPa	uncertainty
272.874	0.60491	0.022347
272.982	0.603788	0.021719
273.025	0.613475	0.022362
277.937	0.866642	0.023067
277.947	0.849337	0.02303
277.972	0.867901	0.023068
278.011	0.871236	0.023074
278.075	0.868603	0.023066
282.909	1.211439	0.025361
282.944	1.215273	0.025369
282.951	1.196646	0.025321
283.034	1.223685	0.025386
288.002	1.686708	0.027527
292.84	2.295159	0.032905
293.028	2.306972	0.024406
293.102	2.337089	0.032923
302.804	4.162188	0.044181
303.069	4.214262	0.037929
303.074	4.237536	0.048197
303.097	4.234858	0.044211
312.795	7.24826	0.062929
313.109	7.367251	0.062746
313.115	7.371671	0.06366
313.156	7.385673	0.062983
316.997	9.084468	0.079522
322.816	12.147251	0.085981
323.131	12.333667	0.094239
323.137	12.334959	0.093246
323.185	12.344122	0.08606
328.151	15.751357	0.118679
332.828	19.630854	0.130101
333.177	19.942722	0.14004
333.179	19.95267	0.143385
333.238	19.96909	0.13023
338.194	25.060131	0.1743
342.808	30.688811	0.209389
343.215	31.23679	0.209615
343.216	31.240569	0.210479
343.277	31.269496	0.194034
348.227	38.646827	0.250889
352.815	46.647639	0.305799
353.234	47.47208	0.306136
353.24	47.461761	0.298611
353.309	47.526956	0.279125
358.247	57.928378	0.352723
362.793	68.980897	0.474646
363.241	70.356556	0.475165
363.259	70.260715	0.428141
363.332	70.344075	0.396914
368.271	84.667324	0.493454
373.259	101.67595	0.537523
373.284	101.39782	0.527052
373.366	102.0101	0.536822

System: water; phases: Crystal, Gas
Property: Vapor or sublimation pressure, kPa (Crystal); method: Closed cell (Static) method
Temperature, K	Vapor or sublimation pressure, kPa	uncertainty
249.291	0.070451	0.020141
249.348	0.07242	0.020121
250.113	0.081457	0.020074
252.957	0.096652	0.020163
253.019	0.103616	0.020079
253.021	0.101618	0.020092
253.586	0.104876	0.020096
257.855	0.160715	0.02031
258.037	0.164202	0.020312
258.039	0.156689	0.020369
258.052	0.165039	0.020376
262.843	0.255184	0.020475
262.975	0.262934	0.020554
262.981	0.254098	0.020545
262.996	0.25168	0.020472
267.85	0.41574	0.020991
267.912	0.403614	0.020874
267.926	0.39203	0.020781
267.994	0.42304	0.021018
