Measured thermophysical data. Experimental Study of the Isochoric Heat Capacity of Diethyl Ether (DEE) in the Critical and Supercritical Regions
Source: Int. J. Thermophys., 2012, 10.1007/s10765-011-1147-z
Compound 1: diethyl ether, C4H10O, InChI=1S/C4H10O/c1-3-5-4-2/h3-4H2,1-2H3, purity 99.88%

System: diethyl ether; phases: Fluid (supercritical or subcritical phases)
Property: Molar heat capacity at constant volume, J/K/mol (Fluid (supercritical or subcritical phases)); method: Vacuum adiabatic calorimetry
Mass density, kg/m3	Temperature, K	Molar heat capacity at constant volume, J/K/mol	uncertainty
534.6	416.096	156.767184	6.5968224
534.6	416.106	156.025968	6.4485792
534.6	416.191	155.2106304	6.3744576
534.6	416.298	153.5799552	6.4485792
534.6	416.405	154.543536	6.5227008
534.6	416.512	153.6540768	6.1520928
534.6	416.619	153.2093472	6.1520928
534.6	417.579	153.5799552	6.1520928
534.6	417.686	154.2470496	6.2262144
534.6	417.793	153.3575904	6.1520928
534.6	417.899	154.3211712	6.2262144
534.6	418.006	153.8764416	6.1520928
534.6	421.515	155.284752	6.2262144
534.6	421.728	154.6917792	6.2262144
534.6	421.834	155.1365088	6.2262144
534.6	421.94	154.2470496	6.1520928
534.6	422.046	154.0988064	6.1520928
534.6	426.253	155.9518464	6.2262144
534.6	426.486	156.396576	6.2262144
534.6	426.591	154.0988064	6.1520928
534.6	426.697	154.6917792	6.2262144
534.6	426.802	155.284752	6.2262144
534.6	426.907	154.3211712	6.1520928
534.6	426.96	155.5812384	6.2262144
534.6	433.203	157.7307648	6.300336
534.6	433.307	158.1013728	6.3744576
534.6	433.412	156.3224544	6.300336
534.6	433.516	158.1013728	6.300336
534.6	433.621	157.0636704	6.300336
534.6	433.725	155.4329952	6.2262144
534.6	433.83	155.1365088	6.2262144
534.6	439.241	158.1013728	6.300336
534.6	439.345	157.3601568	6.300336
534.6	439.448	158.4719808	6.3744576
534.6	439.552	159.1390752	6.3744576
534.6	439.656	158.4719808	6.3744576
534.6	439.759	157.0636704	6.300336
534.6	439.863	156.6930624	6.300336
534.6	439.967	158.7684672	6.3744576
534.6	449.24	157.879008	6.300336
534.6	449.342	158.620224	6.3744576
534.6	449.445	159.2873184	6.3744576
534.6	449.547	159.6579264	6.3744576
534.6	449.752	158.620224	6.3744576
534.6	449.854	159.2873184	6.3744576
534.6	449.957	160.0285344	6.3744576
534.6	460.942	163.5122496	6.5227008
534.6	461.043	162.1780608	6.5227008
534.6	461.144	161.5109664	6.4485792
534.6	461.245	162.9933984	6.5227008
534.6	461.346	160.843872	6.4485792
534.6	461.447	161.5109664	6.4485792
534.6	471.191	164.92056	6.5968224
534.6	471.291	165.291168	6.5968224
534.6	471.391	163.06752	6.5227008
534.6	471.491	163.06752	6.5227008
534.6	471.591	164.92056	6.5968224
534.6	471.691	163.808736	6.5227008
517.3	425.19	159.36144	6.3744576
517.3	425.233	158.0272512	6.300336
517.3	425.275	155.8777248	6.2262144
517.3	425.317	154.3952928	6.1520928
517.3	425.36	156.6189408	6.300336
517.3	425.445	155.5071168	6.2262144
517.3	425.526	154.3952928	6.1520928
517.3	425.631	154.7659008	6.2262144
517.3	425.737	153.8764416	6.1520928
517.3	426.053	154.914144	6.2262144
517.3	426.159	154.6176576	6.2262144
517.3	426.264	154.0988064	6.1520928
517.3	426.37	154.7659008	6.2262144
517.3	426.475	153.9505632	6.1520928
517.3	426.581	154.172928	6.1520928
517.3	426.686	154.3211712	6.1520928
517.3	426.792	155.2106304	6.2262144
517.3	426.897	154.8400224	6.2262144
517.3	427.003	154.543536	6.1520928
485.2	437.138	163.808736	6.5968224
485.2	437.268	163.1416416	6.5227008
485.2	437.372	160.7697504	6.4485792
485.2	437.472	161.8074528	6.4485792
485.2	437.578	158.3237376	6.3744576
485.2	437.684	159.5838048	6.3744576
485.2	437.885	159.1390752	6.3744576
485.2	437.995	156.767184	6.300336
485.2	438.099	157.5825216	6.300336
485.2	438.201	158.0272512	6.300336
485.2	438.413	157.2860352	6.300336
485.2	438.515	158.5461024	6.3744576
485.2	438.625	157.7307648	6.300336
485.2	438.722	156.5448192	6.300336
485.2	445.955	158.249616	6.300336
485.2	446.057	159.6579264	6.3744576
485.2	446.16	158.6943456	6.3744576
485.2	446.263	159.8061696	6.3744576
485.2	446.467	157.7307648	6.300336
485.2	446.576	158.8425888	6.3744576
485.2	460.032	165.2170464	6.5968224
485.2	460.133	163.9569792	6.5968224
485.2	460.234	165.8841408	6.670944
485.2	460.335	165.8841408	6.670944
485.2	460.436	164.4017088	6.5968224
485.2	460.539	163.2157632	6.5227008
485.2	460.64	162.9192768	6.5227008
485.2	471.591	168.997248	6.7450656
485.2	471.693	167.8113024	6.7450656
485.2	471.795	165.2170464	6.5968224
485.2	471.891	165.2170464	6.5968224
485.2	471.992	166.1806272	6.670944
485.2	472.094	169.8867072	6.8191872
485.2	472.186	166.6994784	6.670944
485.2	472.29	169.4419776	6.8191872
485.2	479.249	173.5186656	6.9674304
485.2	479.354	172.703328	6.8933088
485.2	479.447	172.2585984	6.8933088
485.2	479.546	169.367856	6.7450656
485.2	479.645	170.6279232	6.8191872
485.2	479.742	173.5186656	6.9674304
485.2	479.845	173.5186656	6.9674304
485.2	479.942	174.2598816	6.9674304
485.2	480.045	170.6279232	6.8191872
485.2	480.437	171.8138688	6.8933088
485.2	480.538	172.7774496	6.8933088
485.2	480.637	174.0375168	6.9674304
485.2	480.73	173.7410304	6.9674304
485.2	480.932	172.4809632	6.8933088
485.2	481.03	170.47968	6.8191872
485.2	481.329	173.444544	6.9674304
485.2	492.918	179.4483936	7.1897952
485.2	493.018	181.1531904	7.2639168
485.2	493.112	181.8944064	7.2639168
485.2	493.114	179.74488	7.1897952
485.2	493.213	176.4835296	7.041552
485.2	493.407	179.74488	7.1897952
485.2	493.506	177.8177184	7.1156736
485.2	493.602	179.003664	7.1897952
485.2	504.278	184.933392	7.41216
485.2	504.375	183.45096	7.3380384
485.2	504.472	185.7487296	7.41216
485.2	504.568	182.7838656	7.3380384
485.2	504.954	181.8202848	7.2639168
441.5	450.603	170.2573152	7.041552
441.5	450.849	167.0700864	6.9674304
441.5	450.931	170.9985312	6.8933088
441.5	451.075	167.5889376	6.8191872
441.5	451.177	165.8100192	6.8191872
441.5	451.28	168.62664	6.7450656
441.5	451.382	163.9569792	6.670944
441.5	451.485	167.144208	6.670944
441.5	452.199	163.2898848	6.5968224
441.5	452.302	162.2521824	6.5227008
441.5	452.404	164.6981952	6.7450656
441.5	452.507	161.8074528	6.4485792
441.5	452.569	165.4394112	6.670944
441.5	452.671	161.1403584	6.4485792
441.5	452.773	162.7710336	6.5227008
441.5	462.042	166.2547488	6.670944
441.5	462.143	164.179344	6.5968224
441.5	462.245	166.9959648	6.7450656
441.5	462.346	164.8464384	6.5968224
441.5	462.448	164.0311008	6.5968224
441.5	462.549	163.2898848	6.5227008
441.5	462.651	163.438128	6.5968224
440.8	450.766	171.962112	7.41216
440.8	450.869	170.850288	7.2639168
440.8	450.971	169.0713696	6.8191872
440.8	451.074	170.1831936	6.9674304
440.8	451.389	166.6994784	6.9674304
440.8	451.491	166.9218432	6.670944
440.8	451.593	164.9946816	6.5968224
440.8	451.695	167.2183296	6.7450656
440.8	451.797	164.6981952	6.5968224
440.8	451.899	164.2534656	6.5968224
440.8	452.002	165.661776	6.670944
440.8	452.104	164.4758304	6.5968224
440.8	452.206	165.0688032	6.670944
440.8	452.308	163.1416416	6.5227008
440.8	462.356	164.3275872	6.5968224
440.8	462.456	164.6981952	6.5968224
440.8	462.557	164.0311008	6.5968224
440.8	462.658	164.179344	6.5968224
440.8	462.759	165.8100192	6.670944
440.8	462.86	164.8464384	6.5968224
440.8	462.961	163.9569792	6.5968224
440.8	463.062	163.7346144	6.5227008
440.8	477.762	172.8515712	6.8933088
440.8	477.862	170.7020448	6.8191872
440.8	477.961	171.5173824	6.8933088
440.8	478.06	169.9608288	6.8191872
440.8	478.159	170.9985312	6.8191872
440.8	478.258	169.6643424	6.8191872
440.8	478.357	169.6643424	6.8191872
440.8	478.456	172.5550848	6.8933088
440.8	490.963	181.7461632	7.2639168
440.8	491.061	182.709744	7.3380384
440.8	491.453	180.7084608	7.2639168
440.8	491.55	178.9295424	7.1897952
440.8	491.648	178.3365696	7.1156736
440.8	491.746	180.0413664	7.1897952
440.8	491.844	177.4471104	7.1156736
394.8	459.608	178.633056	7.1156736
394.8	459.719	177.4471104	7.1156736
394.8	459.82	173.444544	6.9674304
394.8	459.922	175.0010976	7.041552
394.8	460.024	173.2221792	6.9674304
394.8	460.125	176.4835296	7.041552
394.8	460.227	171.6656256	6.8933088
394.8	460.328	170.3314368	6.8191872
394.8	460.74	173.6669088	6.9674304
394.8	460.942	169.5902208	6.8191872
394.8	461.043	173.3704224	6.9674304
394.8	461.144	170.5538016	6.8191872
394.8	461.346	168.4042752	6.7450656
394.8	461.447	171.5173824	6.8933088
394.8	472.789	172.1844768	6.8933088
394.8	472.888	171.6656256	6.8933088
394.8	473.088	171.2950176	6.8933088
394.8	473.188	170.3314368	6.8191872
394.8	473.287	172.9256928	6.8933088
394.8	473.387	169.9608288	6.8191872
394.8	473.487	171.4432608	6.8933088
394.8	487.337	169.0713696	6.8191872
394.8	487.435	166.4771136	6.670944
394.8	487.533	168.62664	6.7450656
394.8	487.631	170.0349504	6.8191872
394.8	487.729	165.661776	6.670944
394.8	487.827	169.2937344	6.8191872
394.8	487.926	167.4406944	6.7450656
394.8	499.439	165.5876544	6.5968224
394.8	499.536	166.3288704	6.670944
394.8	499.633	167.3665728	6.670944
394.8	499.73	168.7007616	6.7450656
394.8	499.827	164.4758304	6.5968224
394.8	499.924	165.4394112	6.5968224
394.8	500.118	165.5876544	6.5968224
394.8	500.215	164.1052224	6.5968224
394.8	517.997	169.2196128	6.7450656
394.8	518.09	171.1467744	6.8191872
394.8	518.281	169.8125856	6.8191872
394.8	518.376	171.8879904	6.8933088
394.8	518.471	170.7020448	6.8191872
394.8	533.795	178.0400832	7.1897952
394.8	533.983	178.7812992	7.1897952
394.8	534.077	174.6304896	7.041552
394.8	534.17	176.780016	7.1156736
394.8	534.264	175.7423136	7.041552
394.8	554.739	183.45096	7.41216
394.8	554.831	187.0829184	7.8568896
394.8	554.923	183.8956896	7.3380384
394.8	555.016	185.4522432	7.41216
394.8	555.2	185.8969728	7.41216
394.8	555.292	182.2650144	7.6345248
394.8	555.385	183.45096	7.3380384
394.8	574.774	193.3091328	7.7086464
394.8	574.865	191.0854848	7.6345248
394.8	574.955	188.9359584	7.5604032
394.8	575.046	192.4196736	7.7086464
394.8	575.137	189.8254176	7.6345248
394.8	575.227	191.3819712	7.6345248
394.8	575.318	190.3442688	7.6345248
348.2	464.785	190.492512	7.6345248
348.2	464.825	186.1934592	7.4862816
348.2	464.866	188.639472	7.5604032
348.2	464.906	182.9321088	7.3380384
348.2	464.946	187.6017696	7.4862816
348.2	464.987	185.8228512	7.41216
348.2	465.027	182.4132576	7.3380384
348.2	465.068	184.6369056	7.41216
348.2	465.169	182.0426496	7.2639168
348.2	465.27	184.4886624	7.41216
348.2	465.371	183.2285952	7.3380384
348.2	465.472	182.2650144	7.3380384
348.2	470.578	180.7084608	7.2639168
348.2	470.678	177.9659616	7.1156736
348.2	470.779	182.4132576	7.3380384
348.2	470.879	179.4483936	7.1897952
348.2	470.98	178.3365696	7.1156736
348.2	471.08	182.0426496	7.2639168
348.2	471.181	180.5602176	7.2639168
348.2	471.281	177.3729888	7.1156736
310.8	466.474	203.8344	8.153376
310.8	466.514	202.5002112	8.0792544
310.8	466.554	202.0554816	8.0792544
310.8	466.594	200.498928	8.0051328
310.8	466.635	196.7187264	7.8568896
310.8	466.675	202.4260896	8.0792544
310.8	466.777	199.757712	8.0051328
310.8	466.878	197.0893344	7.8568896
310.8	466.979	199.2388608	8.0051328
310.8	467.08	195.9033888	7.8568896
310.8	467.282	199.4612256	8.0051328
310.8	467.382	194.6433216	7.782768
310.8	467.483	197.0893344	7.8568896
310.8	467.584	195.5327808	7.8568896
310.8	467.786	195.8292672	7.8568896
310.8	467.882	193.3832544	7.7086464
310.8	467.98	195.2362944	7.782768
310.8	468.083	198.0529152	7.9310112
310.8	468.185	192.9385248	7.7086464
310.8	468.286	194.2727136	7.782768
310.8	480.129	171.962112	6.8933088
310.8	480.229	175.9646784	7.041552
310.8	480.328	177.8177184	7.1156736
310.8	480.428	174.556368	6.9674304
310.8	480.527	172.8515712	6.8933088
310.8	480.627	173.9633952	6.9674304
310.8	480.726	171.3691392	6.8933088
310.8	480.826	176.1129216	7.041552
310.8	499.299	186.1934592	7.4862816
310.8	499.397	187.6758912	7.4862816
310.8	499.495	189.01008	7.5604032
310.8	499.593	187.6017696	7.4862816
310.8	499.691	184.6369056	7.41216
310.8	499.789	188.4912288	7.5604032
310.8	499.893	188.0464992	7.5604032
310.8	499.985	183.6733248	7.3380384
296.7	466.755	210.6535872	8.4498624
296.7	466.796	207.8369664	8.3757408
296.7	466.837	205.0203456	8.2274976
296.7	466.917	201.8331168	8.0792544
296.7	466.998	200.5730496	8.0051328
296.7	467.039	198.3494016	7.9310112
296.7	467.08	199.757712	8.0051328
296.7	467.18	196.9410912	7.9310112
296.7	467.282	200.9436576	8.0792544
296.7	467.383	198.2011584	7.9310112
296.7	467.484	199.0906176	8.0051328
296.7	472.284	177.7435968	7.1156736
296.7	472.384	173.815152	6.9674304
296.7	472.485	174.556368	6.9674304
296.7	472.586	176.8541376	7.1156736
296.7	472.683	172.2585984	6.8933088
296.7	472.784	175.5199488	7.041552
296.7	472.884	173.2221792	6.9674304
296.7	472.982	177.7435968	7.1156736
296.7	473.085	174.7787328	7.041552
296.7	473.186	176.5576512	7.1156736
296.7	473.286	176.9282592	7.1156736
296.7	473.387	174.2598816	6.9674304
296.7	473.487	176.1129216	7.041552
288.3	466.795	218.65872	8.894592
288.3	466.836	214.4337888	8.6722272
288.3	466.877	209.5417632	8.4498624
288.3	466.917	205.68744	8.3016192
288.3	466.957	198.4976448	8.0051328
288.3	466.989	197.2375776	7.9310112
288.3	467.039	195.9775104	7.8568896
288.3	467.079	193.827984	7.782768
288.3	467.179	199.9800768	8.0792544
288.3	467.279	192.0490656	7.7086464
288.3	467.381	190.9372416	7.6345248
288.3	467.482	193.2350112	7.7086464
288.3	467.583	196.1257536	7.8568896
288.3	473.373	187.2311616	7.4862816
288.3	473.473	183.6733248	7.3380384
288.3	473.573	180.9308256	7.2639168
288.3	473.673	188.0464992	7.5604032
288.3	473.773	182.1908928	7.2639168
288.3	473.873	183.7474464	7.3380384
288.3	473.973	185.6004864	7.41216
288.3	474.073	181.0790688	7.2639168
288.3	474.173	186.3417024	7.4862816
288.3	480.382	185.4522432	7.41216
288.3	480.428	183.5250816	7.3380384
288.3	480.527	181.8944064	7.2639168
288.3	480.627	179.5225152	7.1897952
288.3	480.726	181.1531904	7.2639168
288.3	480.826	185.3781216	7.41216
288.3	480.925	184.8592704	7.41216
288.3	481.025	183.1544736	7.3380384
288.3	481.187	186.1934592	7.4862816
278.7	466.805	233.48304	9.5616864
278.7	466.897	219.4740576	8.8204704
278.7	466.943	226.3673664	9.1169568
278.7	466.977	212.5066272	8.5981056
278.7	467.058	205.68744	8.3016192
278.7	467.098	219.399936	8.8204704
278.7	467.139	212.1360192	8.523984
278.7	467.22	204.2791296	8.2274976
278.7	467.261	208.281696	8.3757408
278.7	467.402	212.2101408	8.523984
278.7	467.503	204.4273728	8.2274976
278.7	467.603	208.4299392	8.3757408
278.7	467.704	202.5743328	8.0792544
278.7	467.805	208.7264256	8.3757408
278.7	467.906	201.1660224	8.0792544
278.7	469.278	203.3896704	8.153376
278.7	469.379	200.2765632	8.0051328
278.7	469.479	201.98136	8.0792544
278.7	469.58	200.2024416	8.0051328
278.7	469.681	198.3494016	7.9310112
278.7	469.781	201.1660224	8.0792544
278.7	469.881	199.4612256	8.0051328
275.7	466.805	245.6389824	10.0805376
275.7	466.826	241.1916864	9.8581728
275.7	466.866	234.1501344	9.5616864
275.7	466.907	228.294528	9.1910784
275.7	466.947	225.4037856	9.0428352
275.7	466.988	227.4791904	9.4134432
275.7	467.029	223.1801376	9.2652
275.7	467.069	218.4363552	9.1169568
275.7	467.11	220.2893952	8.9687136
275.7	467.15	217.546896	8.894592
275.7	467.191	213.5443296	8.8204704
275.7	467.231	213.1737216	8.8204704
275.7	467.332	212.8772352	8.5981056
275.7	467.433	213.840816	8.5981056
275.7	467.533	211.5430464	8.523984
275.7	467.634	210.6535872	8.4498624
275.7	469.174	208.281696	8.3757408
275.7	469.274	210.505344	8.4498624
275.7	469.375	204.575616	8.2274976
275.7	469.475	207.911088	8.3016192
275.7	469.576	205.5391968	8.2274976
275.7	469.676	206.3545344	8.3016192
275.7	469.777	203.463792	8.153376
275.7	469.877	204.2791296	8.153376
261.2	466.845	264.243504	14.083104
261.2	466.856	253.5699936	11.0441184
261.2	466.896	240.3763488	10.006416
261.2	466.937	230.9629056	10.4511456
261.2	466.977	232.5194592	11.859456
261.2	467.018	226.7379744	12.0818208
261.2	467.059	225.700272	18.0115488
261.2	467.159	221.1788544	13.0454016
261.2	467.261	219.1775712	11.1923616
261.2	467.765	212.6548704	9.1910784
261.2	467.866	211.0241952	8.5981056
261.2	467.967	213.9890592	9.1169568
261.2	468.068	211.6912896	8.7463488
261.2	468.169	208.1334528	8.894592
261.2	468.27	211.24656	8.9687136
261.2	468.371	207.7628448	8.8204704
261.2	479.634	195.2362944	7.782768
261.2	479.733	190.121904	7.6345248
261.2	479.833	194.1244704	7.782768
261.2	479.932	192.4937952	7.7086464
261.2	480.032	190.1960256	7.6345248
261.2	480.131	194.1244704	7.782768
261.2	480.231	193.0126464	7.7086464
261.2	480.33	191.974944	7.7086464
261.2	480.43	193.5314976	7.782768
260.7	466.835	248.6038464	13.1936448
260.7	466.878	237.0408768	9.8581728
260.7	466.918	222.5130432	10.006416
260.7	466.958	219.5481792	11.1923616
260.7	466.99	218.2139904	11.4147264
260.7	467.04	213.0254784	8.7463488
260.7	467.08	213.9890592	8.894592
260.7	467.18	218.4363552	9.635808
260.7	467.28	219.5481792	9.7840512
260.7	467.382	214.5079104	8.5981056
260.7	467.483	210.5794656	8.4498624
260.7	467.584	213.9890592	8.5981056
260.7	467.691	207.911088	8.5981056
260.7	467.786	207.6887232	8.3757408
260.7	467.888	209.1711552	8.4498624
260.7	467.988	206.3545344	8.9687136
260.7	468.078	206.5027776	8.523984
260.7	468.19	202.722576	8.3016192
260.7	468.291	205.5391968	8.7463488
260.7	468.392	201.9072384	8.2274976
260.7	468.493	204.946224	8.3016192
260.7	468.594	202.2037248	8.0792544
260.7	468.689	203.9826432	8.153376
255	466.825	234.965472	9.4875648
255	466.896	231.259392	9.3393216
255	466.936	223.847232	8.9687136
255	466.977	217.917504	8.7463488
255	467.018	219.399936	8.8204704
255	467.118	216.435072	8.6722272
255	467.218	218.7328416	8.8204704
255	467.537	208.8746688	8.3757408
255	467.638	209.1711552	8.3757408
255	467.739	205.1685888	8.2274976
255	467.84	205.8356832	8.2274976
255	467.941	208.3558176	8.3757408
255	468.042	203.9085216	8.153376
255	468.143	205.3909536	8.2274976
255	468.244	202.7966976	8.153376
233.7	466.659	208.5040608	8.3757408
233.7	466.674	203.9826432	8.2274976
233.7	466.776	200.0541984	8.0792544
233.7	466.877	201.4625088	8.153376
233.7	466.978	194.5692	7.782768
233.7	467.079	191.8267008	7.7086464
233.7	467.179	194.0503488	7.782768
233.7	467.281	190.3442688	7.6345248
233.7	467.683	184.7851488	7.41216
233.7	467.785	190.0477824	7.6345248
233.7	467.885	187.3794048	7.4862816
233.7	467.987	189.6771744	7.5604032
233.7	468.087	186.3417024	7.4862816
233.7	468.188	190.9372416	7.6345248
233.7	468.289	188.1206208	7.5604032
212.6	466.122	190.121904	7.6345248
212.6	466.162	187.0087968	7.4862816
212.6	466.204	188.4171072	7.5604032
212.6	466.243	184.192176	7.41216
212.6	466.284	181.4496768	7.2639168
212.6	466.385	183.2285952	7.3380384
212.6	466.486	181.1531904	7.2639168
212.6	466.526	184.2662976	7.41216
212.6	466.627	179.5966368	7.1897952
212.6	466.687	175.1493408	7.041552
212.6	466.789	177.3729888	7.1156736
212.6	466.89	173.5186656	6.9674304
212.6	466.991	176.7058944	7.1156736
212.6	467.092	179.5966368	7.1897952
212.6	467.192	173.815152	6.9674304
212.6	468.778	173.5927872	6.9674304
212.6	468.878	170.5538016	6.8191872
212.6	468.979	173.073936	6.8933088
212.6	469.079	170.2573152	6.8191872
212.6	469.18	174.1116384	6.9674304
212.6	469.28	172.1844768	6.8933088
212.6	469.381	171.1467744	6.8191872
212.6	469.481	173.6669088	6.9674304

System: diethyl ether; phases: Fluid (supercritical or subcritical phases)
Property: Molar heat capacity at constant volume, J/K/mol (Fluid (supercritical or subcritical phases)); method: Vacuum adiabatic calorimetry
Mass density, kg/m3	Temperature, K	Molar heat capacity at constant volume, J/K/mol	uncertainty
534.6	357.733	182.4132576	7.3380384
534.6	357.904	183.5250816	7.3380384
534.6	358.137	182.2650144	7.2639168
534.6	358.318	180.7084608	7.2639168
534.6	358.496	181.8944064	7.2639168
534.6	385.726	192.7902816	7.7086464
534.6	386.061	195.310416	7.8568896
534.6	386.341	195.8292672	7.8568896
534.6	386.396	198.0529152	7.9310112
534.6	386.508	194.198592	7.782768
534.6	398.009	206.1321696	8.2274976
534.6	398.119	206.799264	8.3016192
534.6	398.229	206.799264	8.3016192
534.6	398.338	203.8344	8.153376
534.6	398.448	206.5027776	8.3016192
534.6	398.557	205.4650752	8.2274976
534.6	398.667	202.7966976	8.153376
534.6	398.886	205.1685888	8.2274976
534.6	410.182	210.0606144	8.3757408
534.6	410.29	211.4689248	8.4498624
534.6	410.505	210.9500736	8.4498624
534.6	410.613	212.358384	8.523984
534.6	410.721	213.840816	8.523984
534.6	410.936	212.1360192	8.523984
534.6	414.801	213.3219648	8.523984
534.6	414.908	211.8395328	8.523984
534.6	415.015	212.2842624	8.523984
534.6	415.122	213.3219648	8.523984
534.6	415.229	216.064464	8.6722272
534.6	415.336	214.7302752	8.5981056
534.6	415.443	213.840816	8.5981056
517.3	347.716	185.7487296	7.4862816
517.3	347.835	183.8956896	7.3380384
517.3	347.955	187.15704	7.4862816
517.3	348.074	182.4873792	7.3380384
517.3	348.194	185.9710944	7.41216
517.3	348.313	185.0816352	7.41216
517.3	348.433	185.0075136	7.41216
517.3	348.552	183.3027168	7.3380384
517.3	373.315	188.9359584	7.5604032
517.3	373.429	188.1947424	7.5604032
517.3	373.543	191.3819712	7.6345248
517.3	373.657	188.4171072	7.5604032
517.3	373.771	190.0477824	7.6345248
517.3	373.885	191.1596064	7.6345248
517.3	373.999	189.380688	7.5604032
517.3	374.113	187.3052832	7.4862816
517.3	417.792	217.7692608	8.7463488
517.3	418.006	219.3258144	8.7463488
517.3	418.113	218.4363552	8.7463488
517.3	418.22	220.5858816	8.8204704
517.3	418.327	218.8810848	8.7463488
517.3	418.434	219.6964224	8.8204704
517.3	418.541	220.5858816	8.8204704
517.3	421.618	219.9187872	8.8204704
517.3	421.724	223.9954752	8.9687136
517.3	421.831	218.8810848	8.7463488
517.3	421.937	221.9200704	8.894592
517.3	422.15	223.0318944	8.894592
517.3	422.257	219.6964224	8.8204704
517.3	422.363	221.0306112	8.8204704
517.3	422.576	222.8836512	8.894592
517.3	422.789	219.4740576	8.8204704
485.2	362.977	183.3768384	7.3380384
485.2	363.095	185.5263648	7.41216
485.2	363.213	183.7474464	7.3380384
485.2	363.327	186.1193376	7.4862816
485.2	363.438	184.3404192	7.41216
485.2	363.577	187.898256	7.5604032
485.2	373.899	189.5289312	7.5604032
485.2	374.004	188.4912288	7.5604032
485.2	374.117	190.7889984	7.6345248
485.2	374.229	187.0829184	7.4862816
485.2	374.35	188.1206208	7.5604032
485.2	397.575	203.9826432	8.153376
485.2	397.68	202.722576	8.0792544
485.2	397.9	203.1673056	8.153376
485.2	398.009	205.0203456	8.2274976
485.2	398.128	204.1308864	8.153376
485.2	398.229	203.5379136	8.153376
485.2	398.338	204.7979808	8.2274976
485.2	409.428	211.5430464	8.4498624
485.2	409.535	212.728992	8.523984
485.2	409.643	212.2842624	8.523984
485.2	409.751	210.7277088	8.4498624
485.2	409.859	211.3206816	8.4498624
485.2	409.967	213.3219648	8.523984
485.2	410.074	209.9864928	8.3757408
485.2	410.182	212.2842624	8.523984
485.2	422.154	218.5104768	8.7463488
485.2	422.258	219.9929088	8.8204704
485.2	422.476	221.3270976	8.894592
485.2	422.576	217.6951392	8.7463488
485.2	422.679	220.51176	8.8204704
485.2	422.798	219.2516928	8.7463488
485.2	422.887	217.3986528	8.6722272
485.2	422.999	216.2127072	8.6722272
485.2	423.105	218.8810848	8.7463488
485.2	434.771	226.5156096	9.0428352
485.2	434.977	229.2581088	9.1910784
485.2	435.18	226.8862176	9.1169568
485.2	435.29	227.92392	9.1169568
485.2	435.501	225.9226368	9.0428352
485.2	435.811	229.77696	9.1910784
485.2	435.915	228.9616224	9.1910784
485.2	436.023	228.2204064	9.1169568
485.2	436.126	226.9603392	9.1169568
441.5	385.72	206.3545344	8.2274976
441.5	385.832	208.0593312	8.3016192
441.5	385.944	201.9072384	8.0792544
441.5	386.056	204.8721024	8.2274976
441.5	386.168	207.7628448	8.3016192
441.5	386.28	204.2791296	8.153376
441.5	386.392	205.0944672	8.2274976
441.5	386.504	202.9449408	8.153376
441.5	386.612	201.5366304	8.0792544
441.5	386.724	202.5002112	8.0792544
441.5	425.007	224.0695968	8.9687136
441.5	425.113	221.1047328	8.8204704
441.5	425.219	219.6964224	8.8204704
441.5	425.325	221.7718272	8.894592
441.5	425.431	222.8836512	8.894592
441.5	425.534	221.1047328	8.8204704
441.5	425.639	225.2555424	9.0428352
441.5	425.745	225.8485152	9.0428352
441.5	425.85	220.7341248	8.8204704
441.5	447.788	225.700272	9.0428352
441.5	447.994	228.5910144	9.1169568
441.5	448.2	228.8875008	9.1910784
441.5	448.303	228.1462848	9.1169568
441.5	448.406	228.7392576	9.1910784
441.5	448.508	226.441488	9.0428352
441.5	448.714	228.1462848	10.006416
441.5	448.92	227.6274336	10.377024
441.5	449.023	229.5545952	9.5616864
441.5	449.126	228.665136	9.4134432
441.5	449.332	226.5897312	9.635808
441.5	449.641	230.8146624	9.4875648
440.8	367.594	194.7174432	7.782768
440.8	367.824	195.5327808	7.8568896
440.8	367.941	194.3468352	7.782768
440.8	368.054	194.1244704	7.782768
440.8	368.171	194.939808	7.782768
440.8	368.284	194.2727136	7.782768
440.8	368.403	195.2362944	7.782768
440.8	368.511	194.6433216	7.782768
440.8	368.631	193.9762272	7.782768
440.8	380.455	203.6120352	8.153376
440.8	380.567	200.498928	8.0051328
440.8	380.682	204.8721024	8.2274976
440.8	380.793	203.6861568	8.153376
440.8	380.905	201.610752	8.0792544
440.8	381.018	201.0177792	8.0792544
440.8	381.13	202.6484544	8.0792544
440.8	381.355	204.4273728	8.153376
440.8	395.042	208.5040608	8.3757408
440.8	395.153	206.8733856	8.3016192
440.8	395.263	207.9852096	8.3016192
440.8	395.375	211.3206816	8.4498624
440.8	395.482	209.1711552	8.3757408
440.8	395.703	210.2088576	8.4498624
440.8	395.791	211.8395328	8.4498624
440.8	408.78	215.9162208	8.6722272
440.8	408.888	218.4363552	8.7463488
440.8	408.996	217.546896	8.7463488
440.8	409.104	215.1008832	8.5981056
440.8	409.32	212.6548704	8.523984
440.8	409.428	215.9903424	8.6722272
440.8	409.535	213.9149376	8.5981056
440.8	428.591	226.2191232	9.0428352
440.8	428.696	228.665136	9.1169568
440.8	428.803	225.5520288	9.0428352
440.8	428.906	226.6638528	9.0428352
440.8	429.011	223.4025024	8.9687136
440.8	429.117	222.6612864	8.894592
440.8	429.222	223.6248672	8.9687136
440.8	429.327	225.700272	9.0428352
440.8	443.688	233.6312832	9.3393216
440.8	443.792	235.9290528	9.4134432
440.8	443.895	235.5584448	9.4134432
440.8	443.998	233.4089184	9.3393216
440.8	444.142	236.818512	9.4875648
440.8	444.204	233.853648	9.3393216
440.8	444.307	233.0383104	9.3393216
440.8	444.328	236.2996608	9.4875648
440.8	444.511	234.594864	9.4134432
440.8	448.83	234.7431072	10.4511456
440.8	449.035	232.2970944	9.635808
440.8	449.24	235.4102016	10.5252672
440.8	449.342	233.112432	10.0805376
440.8	449.547	233.5571616	9.4875648
440.8	449.649	232.6677024	9.5616864
440.8	449.846	234.1501344	9.7840512
394.8	365.981	194.2727136	7.782768
394.8	366.097	196.4963616	7.8568896
394.8	366.212	195.2362944	7.782768
394.8	366.327	195.0139296	7.782768
394.8	366.443	195.9775104	7.8568896
394.8	366.558	193.3832544	7.7086464
394.8	366.788	194.4950784	7.782768
394.8	378.65	203.9085216	8.153376
394.8	378.763	201.7589952	8.0792544
394.8	378.876	204.7238592	8.2274976
394.8	378.989	202.9449408	8.153376
394.8	379.102	203.5379136	8.153376
394.8	379.215	201.3883872	8.0792544
394.8	379.327	202.2778464	8.0792544
394.8	379.553	204.3532512	8.153376
394.8	398.777	213.9890592	8.5981056
394.8	398.996	213.6925728	8.523984
394.8	399.105	211.617168	8.4498624
394.8	399.214	212.1360192	8.523984
394.8	399.324	213.6925728	8.523984
394.8	399.433	213.0996	8.523984
394.8	399.543	213.9890592	8.5981056
394.8	399.652	213.0996	8.523984
394.8	419.39	223.2542592	8.9687136
394.8	419.497	224.3660832	8.9687136
394.8	419.603	225.0331776	9.0428352
394.8	419.709	222.6612864	8.894592
394.8	419.816	225.9226368	9.0428352
394.8	420.028	221.623584	8.894592
394.8	434.769	228.2204064	9.1169568
394.8	434.873	228.9616224	9.1910784
394.8	434.977	230.2216896	9.1910784
394.8	435.082	228.7392576	9.1910784
394.8	435.186	229.6287168	9.1910784
394.8	435.29	227.7756768	9.1169568
394.8	435.394	230.8146624	9.2652
394.8	435.498	231.4076352	9.2652
394.8	435.603	230.147568	9.1910784
394.8	448.522	237.7079712	9.4875648
394.8	448.625	239.04216	9.5616864
394.8	448.727	236.5220256	9.4875648
394.8	448.83	238.2268224	9.5616864
394.8	448.932	236.9667552	9.4875648
394.8	449.035	237.7820928	9.4875648
394.8	449.137	238.7456736	9.5616864
394.8	449.24	238.3750656	9.5616864
394.8	449.342	236.9667552	9.4875648
394.8	449.445	237.559728	9.4875648
394.8	457.904	238.2268224	9.5616864
394.8	458.006	239.2645248	9.5616864
394.8	458.107	238.8197952	9.5616864
394.8	458.215	241.0434432	9.635808
394.8	458.317	238.2268224	9.5616864
394.8	458.419	240.6728352	9.635808
394.8	458.521	238.5974304	9.5616864
394.8	458.619	239.7092544	9.5616864
394.8	458.622	242.8223616	9.7099296
394.8	459.009	243.4153344	9.7099296
394.8	459.11	241.265808	9.635808
394.8	459.212	240.6728352	9.635808
348.2	435.076	235.0395936	9.4134432
348.2	435.18	237.4856064	9.4875648
348.2	435.285	236.3737824	9.4875648
348.2	435.389	238.5974304	9.5616864
348.2	435.494	239.8574976	9.635808
348.2	435.598	237.7820928	9.4875648
348.2	435.703	237.4856064	9.4875648
348.2	435.807	235.4843232	9.4134432
348.2	435.912	236.7443904	9.4875648
348.2	436.016	235.0395936	9.4134432
348.2	443.166	244.7495232	9.7840512
348.2	443.269	248.7520896	10.006416
348.2	443.373	245.1201312	9.7840512
348.2	443.476	247.936752	9.9322944
348.2	443.58	242.6741184	9.7099296
348.2	443.787	243.489456	9.7099296
348.2	443.89	241.1175648	9.635808
348.2	443.994	242.6741184	9.7099296
348.2	444.097	246.7508064	9.8581728
348.2	455.256	257.0537088	10.3029024
348.2	455.358	254.0888448	10.1546592
348.2	455.46	255.348912	10.2287808
348.2	455.562	255.348912	10.2287808
348.2	455.766	255.348912	10.2287808
348.2	455.868	252.8287776	10.1546592
348.2	455.97	252.4581696	10.0805376
348.2	456.072	254.9041824	10.2287808
348.2	464.264	266.6895168	10.6735104
348.2	464.366	271.0626912	10.8217536
348.2	464.467	268.320192	10.747632
348.2	464.569	266.1706656	10.6735104
348.2	464.664	272.9157312	10.9699968
348.2	464.785	274.24992	10.9699968
310.8	424.373	241.9329024	9.7099296
310.8	424.479	233.48304	9.3393216
310.8	424.585	241.9329024	9.7099296
310.8	424.691	234.3724992	9.4134432
310.8	424.797	233.0383104	9.3393216
310.8	424.903	234.3724992	9.4134432
310.8	425.009	237.7079712	9.4875648
310.8	438.92	247.195536	9.9322944
310.8	439.028	244.8977664	9.7840512
310.8	439.132	250.1604	10.006416
310.8	439.236	247.6402656	9.9322944
310.8	439.34	244.230672	9.7840512
310.8	439.444	247.8626304	9.9322944
310.8	439.548	245.4907392	9.8581728
310.8	439.652	250.6051296	10.006416
310.8	439.756	249.3450624	10.006416
310.8	459.738	290.1119424	11.6370912
310.8	459.84	282.8480256	11.3406048
310.8	459.941	285.4422816	11.4147264
310.8	460.043	279.7349184	11.1923616
310.8	460.347	289.2224832	11.5629696
310.8	460.449	281.3655936	11.2664832
310.8	460.55	285.4422816	11.4147264
310.8	464.866	310.1247744	12.3783072
310.8	464.966	306.863424	12.3041856
310.8	465.068	304.8621408	12.230064
310.8	465.168	307.3081536	12.3041856
310.8	465.472	304.4915328	12.1559424
310.8	465.573	312.5707872	12.5265504
310.8	465.674	308.345856	12.3783072
310.8	465.765	306.2704512	12.230064
310.8	465.868	309.6800448	12.3783072
310.8	465.969	312.793152	12.5265504
310.8	466.07	303.157344	12.1559424
310.8	466.17	306.863424	12.3041856
310.8	466.272	315.758016	12.6747936
310.8	466.313	312.051936	12.5265504
310.8	466.393	322.42896	12.8971584
310.8	466.474	319.464096	12.8230368
296.7	431.735	249.9380352	10.006416
296.7	431.84	253.1993856	10.1546592
296.7	431.945	248.0108736	9.9322944
296.7	432.05	252.6805344	10.0805376
296.7	432.155	253.86648	10.1546592
296.7	432.26	244.0824288	9.7840512
296.7	432.365	252.6805344	10.1546592
296.7	432.47	249.2709408	10.006416
296.7	448.926	265.1329632	10.5993888
296.7	449.132	262.6128288	10.5252672
296.7	449.235	266.5412736	10.6735104
296.7	449.338	263.4281664	10.5252672
296.7	449.441	259.054992	10.377024
296.7	449.544	262.6869504	10.5252672
296.7	449.647	265.355328	10.5993888
296.7	449.75	267.3566112	10.6735104
296.7	449.853	260.9821536	10.4511456
296.7	459.111	285.4422816	11.4147264
296.7	459.213	281.3655936	11.2664832
296.7	459.314	282.2550528	11.2664832
296.7	459.416	283.2186336	11.3406048
296.7	459.517	282.2550528	11.2664832
296.7	459.619	276.9182976	11.11824
296.7	459.72	280.6243776	11.2664832
296.7	459.822	284.1822144	11.3406048
296.7	460.932	286.4058624	11.488848
296.7	461.033	288.4071456	11.5629696
296.7	461.236	285.1457952	11.4147264
296.7	461.338	286.5541056	11.488848
296.7	461.439	290.3343072	11.6370912
296.7	465.868	319.093488	12.8230368
296.7	465.969	322.1324736	12.8971584
296.7	466.07	321.4653792	12.8971584
296.7	466.171	324.9490944	13.0454016
296.7	466.323	332.2130112	13.341888
296.7	466.474	335.6967264	13.4901312
296.7	466.575	332.435376	13.341888
296.7	466.675	335.1037536	13.4160096
296.7	466.715	340.588752	13.6383744
296.7	466.755	341.2558464	13.712496
288.3	458.205	284.7751872	11.4147264
288.3	458.307	294.4109952	11.7853344
288.3	458.409	287.2953216	11.488848
288.3	458.511	289.7413344	11.5629696
288.3	458.613	284.9234304	11.4147264
288.3	458.715	297.3758592	11.9335776
288.3	458.813	290.7049152	11.6370912
288.3	458.915	285.36816	11.4147264
288.3	463.001	303.9726816	12.1559424
288.3	463.153	298.9324128	11.9335776
288.3	463.254	297.968832	11.9335776
288.3	463.356	301.4525472	12.0818208
288.3	463.457	300.4148448	12.0076992
288.3	463.559	305.4551136	12.230064
288.3	463.66	300.933696	12.0818208
288.3	465.817	330.8047008	13.2677664
288.3	465.967	334.1401728	13.4160096
288.3	466.068	334.8813888	13.4160096
288.3	466.169	341.0334816	13.6383744
288.3	466.27	343.1088864	13.7866176
288.3	466.371	342.8124	13.712496
288.3	466.493	345.2584128	13.8607392
288.3	466.554	344.5913184	13.8607392
288.3	466.594	354.2271264	14.2313472
288.3	466.635	347.1114528	13.9348608
288.3	466.694	357.1178688	14.3795904
288.3	466.755	355.4871936	14.3795904
288.3	466.795	369.125568	14.9725632
278.7	460.321	294.4851168	11.7853344
278.7	460.423	297.5241024	11.9335776
278.7	460.524	285.6646464	11.4147264
278.7	460.626	286.3317408	11.488848
278.7	460.728	292.409712	11.7112128
278.7	460.83	293.4474144	11.7112128
278.7	460.933	295.0780896	11.859456
278.7	461.035	293.9662656	11.7853344
278.7	466.089	350.6692896	14.083104
278.7	466.19	350.1504384	14.083104
278.7	466.291	359.2673952	14.453712
278.7	466.392	357.1919904	14.453712
278.7	466.493	365.790096	14.8984416
278.7	466.594	372.3127968	15.194928
278.7	466.693	384.3946176	15.4914144
278.7	466.754	399.144816	16.3808736
278.7	466.805	411.37488	16.9738464
275.7	456.679	285.0716736	11.4147264
275.7	456.781	287.6659296	11.488848
275.7	457.087	291.5202528	11.6370912
275.7	457.189	286.6282272	11.488848
275.7	457.291	284.626944	11.4147264
275.7	457.495	284.5528224	11.4147264
275.7	457.597	290.2601856	11.6370912
275.7	457.699	288.703632	11.5629696
275.7	463.051	310.198896	12.4524288
275.7	463.254	312.1260576	12.5265504
275.7	463.457	309.6059232	12.3783072
275.7	463.559	312.793152	12.5265504
275.7	463.762	308.6423424	12.3783072
275.7	465.918	356.154288	14.3054688
275.7	466.019	358.6003008	14.453712
275.7	466.12	360.0086112	14.5278336
275.7	466.221	365.4936096	14.82432
275.7	466.322	367.3466496	14.82432
275.7	466.423	374.7588096	15.4172928
275.7	466.524	384.1722528	15.7879008
275.7	466.623	392.3256288	16.1585088
275.7	466.664	391.5844128	16.1585088
275.7	466.705	395.7352224	16.0102656
275.7	466.745	406.6310976	16.5291168
275.7	466.786	416.4151488	17.047968
275.7	466.805	424.9391328	17.4926976
261.2	453.523	277.6595136	11.11824
261.2	453.625	278.697216	11.1923616
261.2	453.728	279.80904	11.1923616
261.2	453.83	277.956	11.11824
261.2	453.933	279.7349184	11.1923616
261.2	454.035	284.1080928	11.3406048
261.2	454.137	281.66208	11.2664832
261.2	454.24	281.4397152	11.2664832
261.2	454.342	281.4397152	11.2664832
261.2	460.827	309.828288	12.3783072
261.2	460.93	312.793152	12.5265504
261.2	461.032	316.499232	12.6747936
261.2	461.131	315.4615296	12.600672
261.2	461.234	314.275584	12.600672
261.2	461.336	315.0168	12.600672
261.2	461.437	316.499232	12.6747936
261.2	461.538	317.3145696	12.6747936
261.2	461.638	317.240448	12.6747936
261.2	466.15	381.0591456	15.4172928
261.2	466.251	386.544144	15.8620224
261.2	466.352	392.0291424	16.6032384
261.2	466.453	398.4036	17.789184
261.2	466.493	399.2189376	18.4562784
261.2	466.534	402.1838016	19.4939808
261.2	466.575	405.2969088	19.8645888
261.2	466.615	410.263056	19.642224
261.2	466.654	413.3761632	20.4575616
261.2	466.694	416.4892704	20.012832
261.2	466.735	425.9768352	18.0856704
261.2	466.775	434.7973056	18.6786432
261.2	466.816	448.3615584	20.8281696
261.2	466.845	463.1858784	24.460128
260.7	465.666	367.3466496	14.7501984
260.7	465.767	370.0150272	14.82432
260.7	465.869	372.831648	14.9725632
260.7	465.968	373.3504992	14.9725632
260.7	466.069	377.5754304	15.194928
260.7	466.17	378.761376	15.194928
260.7	466.271	382.6156992	15.3431712
260.7	466.372	386.9888736	15.565536
260.7	466.474	395.5869792	16.1585088
260.7	466.514	395.9575872	16.0843872
260.7	466.555	398.9965728	16.1585088
260.7	466.595	403.592112	16.306752
260.7	466.636	405.2969088	16.4549952
260.7	466.674	409.7442048	16.6032384
260.7	466.715	414.0432576	17.1220896
260.7	466.756	421.2330528	18.159792
260.7	466.796	428.7193344	19.7163456
260.7	466.835	432.4254144	23.4224256
255	459.472	302.786736	12.1559424
255	459.574	304.0468032	12.230064
255	459.675	300.1183584	12.0076992
255	459.777	305.6033568	12.230064
255	459.888	308.4940992	12.3783072
255	460.081	303.6761952	12.1559424
255	460.183	310.1247744	12.4524288
255	460.284	308.2717344	12.3041856
255	463.418	325.9867968	13.0454016
255	463.52	322.8736896	12.97128
255	463.621	331.4717952	13.2677664
255	463.723	321.7618656	12.8971584
255	463.824	327.4692288	13.1195232
255	463.926	331.4717952	13.2677664
255	464.027	329.7669984	13.1936448
255	464.129	338.2168608	13.5642528
255	464.23	326.3574048	13.0454016
255	466.008	378.2425248	15.194928
255	466.109	382.467456	15.3431712
255	466.21	381.8744832	15.3431712
255	466.311	387.5077248	15.565536
255	466.412	394.0304256	15.8620224
255	466.452	388.9901568	15.6396576
255	466.493	393.1409664	15.7879008
255	466.533	395.5869792	15.8620224
255	466.574	401.1460992	16.1585088
255	466.612	400.627248	16.1585088
255	466.653	405.2969088	16.306752
255	466.694	404.5556928	16.306752
255	466.734	411.0783936	16.5291168
255	466.775	417.0081216	16.8256032
255	466.825	418.1940672	16.9738464
233.7	457.797	280.2537696	11.1923616
233.7	457.899	294.4109952	11.7853344
233.7	458.001	286.7764704	11.488848
233.7	458.103	281.8844448	11.2664832
233.7	458.205	286.2576192	11.488848
233.7	458.307	295.5228192	11.859456
233.7	458.409	287.962416	11.488848
233.7	458.511	285.1457952	11.4147264
233.7	461.841	318.352272	12.7489152
233.7	461.942	309.2353152	12.4524288
233.7	462.044	314.0532192	12.600672
233.7	462.145	322.058352	12.8971584
233.7	462.247	315.2391648	12.600672
233.7	462.348	324.2078784	12.97128
233.7	462.45	311.31072	12.4524288
233.7	462.551	319.9088256	12.8230368
233.7	462.653	312.8672736	12.5265504
233.7	465.359	362.0098944	14.5278336
233.7	465.463	364.0852992	14.6019552
233.7	465.564	362.3805024	14.5278336
233.7	465.665	361.0463136	14.453712
233.7	465.765	366.531312	14.6760768
233.7	465.867	365.5677312	14.6760768
233.7	465.968	369.2738112	14.82432
233.7	466.069	373.7211072	14.9725632
233.7	466.17	372.3127968	14.8984416
233.7	466.271	379.2802272	15.194928
233.7	466.372	379.3543488	15.194928
233.7	466.473	389.509008	15.6396576
233.7	466.574	387.8042112	15.565536
233.7	466.659	389.6572512	15.565536
212.6	460.931	326.5797696	13.0454016
212.6	461.033	320.4276768	12.8230368
212.6	461.134	325.6161888	13.0454016
212.6	461.236	327.9139584	13.1195232
212.6	461.337	322.6513248	12.8971584
212.6	461.439	329.3963904	13.1936448
212.6	461.54	324.652608	12.97128
212.6	461.642	331.9165248	13.2677664
212.6	461.743	323.3184192	12.97128
212.6	463.86	343.2571296	13.712496
212.6	463.961	338.735712	13.5642528
212.6	464.063	342.5900352	13.712496
212.6	464.165	349.3351008	14.0089824
212.6	464.266	344.5171968	13.7866176
212.6	464.368	347.5561824	13.9348608
212.6	464.469	344.9619264	13.7866176
212.6	464.569	349.9280736	14.0089824
212.6	465.476	374.3882016	14.9725632
212.6	465.577	370.3115136	14.82432
212.6	465.678	373.2763776	14.9725632
212.6	465.779	374.5364448	14.9725632
212.6	465.88	378.761376	15.194928
212.6	465.961	382.1709696	15.3431712
212.6	466.001	377.3530656	15.1208064
212.6	466.041	379.0578624	15.194928
212.6	466.082	383.5051584	15.3431712
212.6	466.122	384.0981312	15.4172928

System: diethyl ether; phases: Liquid
Property: Molar heat capacity at constant volume, J/K/mol (Liquid); method: Vacuum adiabatic calorimetry
Mass density, kg/m3	Temperature, K	Molar heat capacity at constant volume, J/K/mol	uncertainty
534.6	415.55	215.4714912	8.5981056
534.6	415.657	214.0631808	8.5981056
534.6	415.764	214.582032	8.5981056
534.6	415.871	216.2868288	8.6722272
534.6	415.978	217.2504096	8.6722272
534.6	416.084	216.7315584	8.6722272
534.6	416.096	217.9916256	8.7463488
517.3	424.045	219.1034496	8.7463488
517.3	424.151	223.9213536	8.9687136
517.3	424.257	222.8836512	8.894592
517.3	424.363	225.2555424	9.0428352
517.3	424.469	219.6223008	8.8204704
517.3	424.575	225.9967584	9.0428352
517.3	424.681	218.288112	8.7463488
517.3	424.787	221.7718272	8.894592
517.3	424.893	223.5507456	8.9687136
517.3	425.021	218.9552064	8.7463488
517.3	425.063	222.735408	8.894592
517.3	425.105	225.6261504	9.0428352
517.3	425.148	222.5130432	8.894592
517.3	425.19	223.106016	8.894592
485.2	436.386	228.5910144	9.1169568
485.2	436.646	229.3322304	9.1910784
485.2	436.804	227.7015552	9.1169568
485.2	437.06	228.4427712	9.1169568
485.2	437.138	229.4804736	9.1910784
441.5	449.744	229.4804736	9.4875648
441.5	450.053	230.2958112	9.4134432
441.5	450.156	232.0747296	9.2652
441.5	450.259	229.1839872	9.4875648
441.5	450.362	233.6312832	9.4134432
441.5	450.486	232.5194592	9.5616864
441.5	450.603	235.1137152	9.4134432
440.8	449.949	232.5935808	9.5616864
440.8	450.052	234.2983776	9.7099296
440.8	450.155	232.1488512	9.3393216
440.8	450.258	235.5584448	10.2287808
440.8	450.361	234.4466208	9.4134432
440.8	450.458	236.077296	9.7840512
440.8	450.561	235.0395936	9.4134432
440.8	450.668	236.7443904	9.4875648
440.8	450.766	237.7820928	9.5616864
394.8	459.313	242.0811456	9.7099296
394.8	459.415	244.3047936	9.7840512
394.8	459.516	246.5284416	9.8581728
394.8	459.608	247.566144	9.9322944
