Measured thermophysical data. Burnett Measurements and Virial Coefficients for the R32+N2O System
Source: Int. J. Thermophys., 2006, 10.1007/s10765-006-0033-6
Compound 1: difluoromethane, CH2F2, InChI=1S/CH2F2/c2-1-3/h1H2
Compound 2: nitrous oxide, N2O, InChI=1S/N2O/c1-2-3

System: difluoromethane + nitrous oxide; phases: Gas
Property: Compressibility factor (Gas); method: Other PVT measurement
Temperature, K	Pressure, kPa	Mole fraction of nitrous oxide	Compressibility factor	uncertainty
303.23	131	0.2958	0.9882	0.0005
303.23	133.7	0.3826	0.9887	0.0005
303.23	194.9	0.2958	0.9827	0.0005
303.23	199.1	0.3826	0.9838	0.0005
303.23	213.1	0.7326	0.9893	0.0005
303.23	235.1	0.6589	0.9847	0.0005
303.23	289.2	0.2958	0.9746	0.0005
303.23	295.5	0.3826	0.9761	0.0005
303.23	316.4	0.7326	0.9819	0.0005
303.23	349.2	0.6589	0.9776	0.0005
303.23	356.8	0.448	0.9708	0.0005
303.23	427.1	0.2958	0.9622	0.0005
303.23	436.8	0.3826	0.9645	0.0005
303.23	468.8	0.7326	0.9723	0.0005
303.23	516.7	0.6589	0.9669	0.0005
303.23	526.5	0.448	0.9574	0.0005
303.23	626.7	0.2958	0.9437	0.0005
303.23	641.7	0.3826	0.947	0.0005
303.23	691.2	0.7326	0.9582	0.0005
303.23	760.2	0.6589	0.9509	0.0005
303.23	771.2	0.448	0.9375	0.0005
303.23	910.7	0.2958	0.9166	0.0005
303.23	933.9	0.3826	0.9213	0.0005
303.23	1012.1	0.7326	0.9378	0.0005
303.23	1108.8	0.6589	0.927	0.0005
303.23	1117.6	0.448	0.9081	0.0005
303.23	1303.4	0.2958	0.8768	0.0004
303.23	1340.2	0.3826	0.8837	0.0004
303.23	1465.6	0.7326	0.9077	0.0005
303.23	1593.4	0.448	0.8653	0.0004
303.23	1596.2	0.6589	0.892	0.0004
303.23	1822	0.2958	0.8193	0.0004
303.23	1881.5	0.3826	0.8292	0.0004
303.23	2086.1	0.7326	0.8636	0.0004
303.23	2214.2	0.448	0.8037	0.0004
303.23	2252	0.6589	0.8412	0.0004
303.23	2454.7	0.2958	0.7378	0.0004
303.23	2551.4	0.3826	0.7516	0.0004
303.23	2892.7	0.7326	0.8004	0.0004
303.23	2954.5	0.448	0.7169	0.0004
303.23	3079.5	0.6589	0.7688	0.0004
303.23	3848.9	0.7326	0.7119	0.0004
303.23	4005.3	0.6589	0.6684	0.0003
323.44	159	0.5714	0.9902	0.0005
323.44	237	0.5714	0.9864	0.0005
323.44	254.6	0.745	0.9868	0.0005
323.44	352.4	0.5714	0.9806	0.0005
323.44	378.8	0.745	0.9812	0.0005
323.44	522.4	0.5714	0.9714	0.0005
323.44	561.8	0.745	0.9727	0.0005
323.44	770.4	0.5714	0.9577	0.0005
323.44	829.3	0.745	0.9598	0.0005
323.44	1128	0.5714	0.9372	0.0005
323.44	1215.8	0.745	0.9406	0.0005
323.44	1633.3	0.5714	0.9071	0.0005
323.44	1764.2	0.745	0.9123	0.0005
323.44	2325.6	0.5714	0.8633	0.0004
323.44	2519.5	0.745	0.8708	0.0004
323.44	3228.5	0.5714	0.8011	0.0004
323.44	3513.7	0.745	0.8117	0.0004
323.44	4726.6	0.745	0.7299	0.0004
323.45	119.4	0.4108	0.9909	0.0005
323.45	128.6	0.3236	0.9894	0.0005
323.45	141.9	0.2465	0.9883	0.0005
323.45	178	0.4108	0.9879	0.0005
323.45	191.7	0.3236	0.986	0.0005
323.45	211.5	0.2465	0.984	0.0005
323.45	265	0.4108	0.9831	0.0005
323.45	285.1	0.3236	0.9802	0.0005
323.45	314.1	0.2465	0.9771	0.0005
323.45	393.4	0.4108	0.9754	0.0005
323.45	422.8	0.3236	0.9714	0.0005
323.45	464.8	0.2465	0.9664	0.0005
323.45	581.5	0.4108	0.9636	0.0005
323.45	623.6	0.3236	0.9578	0.0005
323.45	683.5	0.2465	0.9499	0.0005
323.45	854.1	0.4108	0.946	0.0005
323.45	912.9	0.3236	0.9372	0.0005
323.45	996.3	0.2465	0.9254	0.0005
323.45	1242.3	0.4108	0.9198	0.0005
323.45	1321.6	0.3236	0.9069	0.0005
323.45	1433.4	0.2465	0.8899	0.0004
323.45	1781.4	0.4108	0.8816	0.0004
323.45	1881.4	0.3236	0.8629	0.0004
323.45	2021.2	0.2465	0.8388	0.0004
323.45	2499.7	0.4108	0.8269	0.0004
323.45	2610.3	0.3236	0.8003	0.0004
343.77	139.1	0.2266	0.9898	0.0005
343.77	195.1	0.4666	0.989	0.0005
343.77	207.5	0.2266	0.9867	0.0005
343.77	226.8	0.7567	0.9899	0.0005
343.77	290.7	0.4666	0.985	0.0005
343.77	308.8	0.2266	0.9814	0.0005
343.77	338.1	0.7567	0.9863	0.0005
343.77	432.2	0.4666	0.9788	0.0005
343.77	458	0.2266	0.973	0.0005
343.77	502.9	0.7567	0.9804	0.0005
343.77	640.2	0.4666	0.9692	0.0005
343.77	676.2	0.2266	0.9601	0.0005
343.77	745.4	0.7567	0.9714	0.0005
343.77	943.3	0.4666	0.9546	0.0005
343.77	991.2	0.2266	0.9407	0.0005
343.77	1099.4	0.7567	0.9577	0.0005
343.77	1379.1	0.4666	0.9328	0.0005
343.77	1438.1	0.2266	0.9123	0.0005
343.77	1609.7	0.7567	0.9372	0.0005
343.77	1992.6	0.4666	0.9008	0.0005
343.77	2053.8	0.2266	0.8708	0.0004
343.77	2331.4	0.7567	0.9073	0.0005
343.77	2828.1	0.4666	0.8546	0.0004
343.77	2865.7	0.2266	0.8122	0.0004
343.77	3321.8	0.7567	0.8641	0.0004
343.77	3911.6	0.4666	0.7901	0.0004
343.77	4620.1	0.7567	0.8033	0.0004
343.78	138.3	0.3594	0.9911	0.0005
343.78	187.9	0.5908	0.9906	0.0005
343.78	206.4	0.3594	0.9884	0.0005
343.78	280.1	0.5908	0.9872	0.0005
343.78	307.3	0.3594	0.9836	0.0005
343.78	416.8	0.5908	0.9817	0.0005
343.78	456.2	0.3594	0.9762	0.0005
343.78	618.2	0.5908	0.9733	0.0005
343.78	674.7	0.3594	0.9649	0.0005
343.78	912.7	0.5908	0.9605	0.0005
343.78	991.4	0.3594	0.9477	0.0005
343.78	1338.5	0.5908	0.9415	0.0005
343.78	1443.8	0.3594	0.9225	0.0005
343.78	1942.8	0.5908	0.9134	0.0005
343.78	2073.7	0.3594	0.8857	0.0004
343.78	2776.8	0.5908	0.8726	0.0004
343.78	2917.9	0.3594	0.833	0.0004
343.78	3879.6	0.5908	0.8149	0.0004
364.35	199.4	0.5606	0.9913	0.0005
364.35	297.5	0.5606	0.9887	0.0005
364.35	443	0.5606	0.9839	0.0005
364.35	657.8	0.5606	0.9766	0.0005
364.35	972.8	0.5606	0.9653	0.0005
364.35	1430	0.5606	0.9485	0.0005
364.35	2083.5	0.5606	0.9237	0.0005
364.35	2996.2	0.5606	0.8879	0.0004
364.35	4225.6	0.5606	0.837	0.0004
364.36	114.2	0.2563	0.9933	0.0005
364.36	134.6	0.33	0.9913	0.0005
364.36	170.5	0.2563	0.9913	0.0005
364.36	197	0.4559	0.9909	0.0005
364.36	200.9	0.33	0.9892	0.0005
364.36	250.5	0.7632	0.9908	0.0005
364.36	254.2	0.2563	0.9878	0.0005
364.36	294	0.4559	0.9885	0.0005
364.36	299.7	0.33	0.9864	0.0005
364.36	373.5	0.7632	0.9875	0.0005
364.36	378.2	0.2563	0.9825	0.0005
364.36	437.3	0.4559	0.9828	0.0005
364.36	445.6	0.33	0.9802	0.0005
364.36	556.1	0.7632	0.9827	0.0005
364.36	561.2	0.2563	0.9743	0.0005
364.36	649	0.4559	0.9748	0.0005
364.36	660.6	0.33	0.9712	0.0005
364.36	824.6	0.7632	0.974	0.0005
364.36	828.8	0.2563	0.9619	0.0005
364.36	959	0.4559	0.9628	0.0005
364.36	974.3	0.33	0.9575	0.0005
364.36	1216	0.2563	0.9432	0.0005
364.36	1218.7	0.7632	0.9621	0.0005
364.36	1408	0.4559	0.9448	0.0005
364.36	1425.9	0.33	0.9367	0.0005
364.36	1766.2	0.2563	0.9157	0.0005
364.36	1788.6	0.7632	0.9438	0.0005
364.36	2047.8	0.4559	0.9185	0.0005
364.36	2064.5	0.33	0.9064	0.0005
364.36	2528.1	0.2563	0.8762	0.0004
364.36	2598.5	0.7632	0.9166	0.0005
364.36	2935.9	0.4559	0.8802	0.0004
364.36	2942.6	0.33	0.8636	0.0004
364.36	3725.1	0.7632	0.8782	0.0004
364.36	4122.8	0.4559	0.8262	0.0004
364.36	5229	0.7632	0.824	0.0004
