Measured thermophysical data. Thermal Conductivity of Mixtures of Carbon Dioxide and Ethane in the Critical Region
Source: Int. J. Thermophys., 2008, 10.1007/s10765-008-0482-1
Compound 1: ethane, C2H6, InChI=1S/C2H6/c1-2/h1-2H3
Compound 2: carbon dioxide, CO2, InChI=1S/CO2/c2-1-3

System: ethane + carbon dioxide; phases: Fluid (supercritical or subcritical phases)
Property: Thermal conductivity, W/m/K (Fluid (supercritical or subcritical phases)); method: Parallel plate method
Mole fraction of carbon dioxide	Amount density, mol/m3	Temperature, K	Thermal conductivity, W/m/K	uncertainty
0.25	446	296.125	0.0209	0.0013
0.25	446	296.565	0.0209	0.0013
0.25	446	296.88	0.021	0.0013
0.25	446	297.517	0.021	0.0013
0.25	446	299.01	0.0211	0.0013
0.25	446	299.02	0.0212	0.0013
0.25	446	302.023	0.0214	0.0013
0.25	446	308.075	0.0219	0.0013
0.25	446	318.152	0.0232	0.0013
0.25	2940	296.141	0.0304	0.0016
0.25	2940	296.242	0.0312	0.0016
0.25	2940	296.516	0.0308	0.0015
0.25	2940	296.864	0.0306	0.0015
0.25	2940	297.47	0.0305	0.0015
0.25	2940	298.996	0.0305	0.0015
0.25	2940	302.041	0.0307	0.0015
0.25	2940	308.149	0.031	0.0015
0.25	2940	318.164	0.0316	0.0015
0.25	5680	296.183	0.075	0.0022
0.25	5680	296.188	0.0751	0.0022
0.25	5680	296.293	0.0757	0.0021
0.25	5680	296.451	0.0719	0.0021
0.25	5680	296.847	0.0729	0.0021
0.25	5680	297.459	0.0677	0.002
0.25	5680	298.992	0.0623	0.0019
0.25	5680	302.017	0.056	0.0018
0.25	5680	308.701	0.0516	0.0018
0.25	5680	318.272	0.0481	0.0017
0.25	6830	296.197	0.0909	0.0027
0.25	6830	296.221	0.0855	0.0025
0.25	6830	296.461	0.102	0.0036
0.25	6830	296.656	0.138	0.0071
0.25	6830	296.741	0.199	0.0086
0.25	6830	296.791	0.218	0.0052
0.25	6830	296.842	0.142	0.0118
0.25	6830	297.456	0.11	0.0027
0.25	6830	297.465	0.102	0.0026
0.25	6830	297.467	0.102	0.0026
0.25	6830	298.988	0.0779	0.0068
0.25	6830	301.995	0.0658	0.002
0.25	6830	302.035	0.0658	0.002
0.25	6830	308.011	0.0567	0.0019
0.25	6830	318.139	0.0532	0.0018
0.25	6870	296.701	0.177	0.0062
0.25	6870	296.703	0.188	0.0066
0.25	6870	296.711	0.214	0.0112
0.25	6870	296.733	0.195	0.0069
0.25	6870	296.748	0.204	0.0065
0.25	6870	296.764	0.189	0.0063
0.25	6870	296.766	0.195	0.0096
0.25	6870	296.8	0.168	0.0136
0.25	6870	296.826	0.157	0.009
0.25	6870	298.685	0.169	0.0035
0.25	7450	295.606	0.0795	0.0022
0.25	7450	295.756	0.0843	0.0024
0.25	7450	295.871	0.0833	0.0024
0.25	7450	295.975	0.0881	0.0026
0.25	7450	296.072	0.0888	0.0024
0.25	7450	296.218	0.0888	0.0033
0.25	7450	296.222	0.099	0.0036
0.25	7450	296.402	0.124	0.0037
0.25	7450	296.406	0.117	0.0035
0.25	7450	296.524	0.131	0.0073
0.25	7450	296.579	0.157	0.0104
0.25	7450	296.62	0.184	0.0039
0.25	7450	296.64	0.186	0.004
0.25	7450	296.646	0.183	0.0046
0.25	7450	296.687	0.186	0.007
0.25	7450	296.699	0.154	0.0055
0.25	7450	296.708	0.175	0.0048
0.25	7450	296.716	0.164	0.0049
0.25	7450	296.721	0.166	0.0049
0.25	7450	296.737	0.145	0.006
0.25	7450	296.755	0.157	0.0052
0.25	7450	296.881	0.145	0.0039
0.25	7450	298.954	0.081	0.003
0.25	7450	308.06	0.0646	0.002
0.25	7490	296.183	0.0914	0.0031
0.25	7490	296.306	0.102	0.0033
0.25	7490	296.337	0.107	0.0036
0.25	7490	296.397	0.114	0.0064
0.25	7490	296.441	0.124	0.0065
0.25	7490	296.442	0.13	0.0066
0.25	7490	296.541	0.166	0.0044
0.25	7490	296.88	0.139	0.0033
0.25	7490	297.481	0.111	0.0027
0.25	7490	298.989	0.0811	0.003
0.25	7490	302.06	0.0699	0.002
0.25	7490	308.02	0.0614	0.0019
0.25	7490	318.135	0.0559	0.0018
0.25	8450	296.057	0.112	0.0058
0.25	8450	296.106	0.11	0.0034
0.25	8450	296.215	0.107	0.0029
0.25	8450	296.802	0.0921	0.0024
0.25	8450	297.443	0.0821	0.0022
0.25	8450	302.049	0.0676	0.002
0.25	8450	308.226	0.0617	0.0019
0.25	8450	318.164	0.049	0.0017
0.25	10780	296.143	0.0692	0.002
0.25	10780	297.499	0.0671	0.002
0.25	10780	298.988	0.0684	0.002
0.25	10780	308.116	0.0659	0.002
0.25	10780	318.145	0.065	0.002
0.26	877	293.153	0.0213	0.0013
0.26	877	296.87	0.0217	0.0013
0.26	877	302.009	0.0222	0.0013
0.26	877	308.095	0.0228	0.0013
0.26	877	318.193	0.0236	0.0014
0.26	3090	293.641	0.0314	0.0015
0.26	3090	297.156	0.0313	0.0015
0.26	3090	302.105	0.0311	0.0015
0.26	3090	308.158	0.0314	0.0015
0.26	3090	318.165	0.0318	0.0015
0.26	6710	293.082	0.0687	0.002
0.26	6710	294.96	0.075	0.0021
0.26	6710	295.732	0.0845	0.0023
0.26	6710	296.053	0.099	0.0043
0.26	6710	296.054	0.101	0.0046
0.26	6710	296.096	0.0958	0.0031
0.26	6710	296.236	0.118	0.0045
0.26	6710	296.343	0.159	0.0056
0.26	6710	296.362	0.166	0.0059
0.26	6710	296.375	0.147	0.0054
0.26	6710	296.381	0.193	0.0067
0.26	6710	296.394	0.166	0.0045
0.26	6710	296.396	0.18	0.0049
0.26	6710	296.435	0.167	0.0044
0.26	6710	296.516	0.135	0.0035
0.26	6710	296.816	0.118	0.0125
0.26	6710	296.844	0.111	0.0037
0.26	6710	296.866	0.11	0.0037
0.26	6710	301.934	0.0624	0.0019
0.26	6710	308.182	0.054	0.0018
0.26	6710	318.207	0.0503	0.0018
0.26	6710	296.381	0.172	0.0061
0.5	435	291.085	0.0191	0.0013
0.5	435	291.336	0.0192	0.0013
0.5	435	291.505	0.0192	0.0013
0.5	435	292.083	0.0192	0.0013
0.5	435	293.155	0.0193	0.0013
0.5	435	296.055	0.0196	0.0013
0.5	435	301.977	0.0203	0.0013
0.5	435	308.074	0.0207	0.0013
0.5	435	308.087	0.0207	0.0013
0.5	435	318.11	0.0218	0.0013
0.5	2940	291.055	0.0276	0.0015
0.5	2940	291.34	0.0274	0.0014
0.5	2940	291.547	0.0274	0.0014
0.5	2940	292.109	0.0276	0.0014
0.5	2940	293.13	0.0277	0.0014
0.5	2940	296.073	0.0278	0.0014
0.5	2940	302.01	0.0281	0.0014
0.5	2940	307.987	0.0279	0.0014
0.5	2940	318.143	0.0293	0.0014
0.5	5650	291.072	0.0554	0.0021
0.5	5650	291.35	0.0542	0.0018
0.5	5650	291.569	0.0553	0.0019
0.5	5650	292.093	0.0546	0.0018
0.5	5650	293.144	0.052	0.0018
0.5	5650	296.035	0.047	0.0017
0.5	5650	302.433	0.0436	0.0017
0.5	5650	308.062	0.041	0.0016
0.5	5650	318.132	0.0411	0.0016
0.5	5650	318.149	0.0398	0.0016
0.5	6960	291.058	0.099	0.0025
0.5	6960	291.112	0.104	0.0026
0.5	6960	291.172	0.11	0.0027
0.5	6960	291.178	0.108	0.0027
0.5	6960	291.341	0.11	0.0027
0.5	6960	291.347	0.111	0.0027
0.5	6960	292.054	0.099	0.0025
0.5	6960	293.086	0.0861	0.0023
0.5	6960	295.697	0.0639	0.002
0.5	6960	296.073	0.062	0.0019
0.5	6960	301.958	0.0531	0.0018
0.5	6960	308.016	0.0468	0.0017
0.5	6960	318.128	0.0425	0.0016
0.5	7530	291.067	0.114	0.005
0.5	7530	291.2	0.144	0.0049
0.5	7530	291.257	0.159	0.0056
0.5	7530	291.294	0.158	0.0057
0.5	7530	291.318	0.21	0.0277
0.5	7530	291.333	0.206	0.0085
0.5	7530	291.347	0.172	0.0054
0.5	7530	291.567	0.139	0.0034
0.5	7530	292.052	0.106	0.0027
0.5	7530	293.083	0.0833	0.0023
0.5	7530	296.022	0.0642	0.002
0.5	7530	301.946	0.0505	0.0018
0.5	7530	308.029	0.0469	0.0017
0.5	7530	318.115	0.0445	0.0017
0.5	7730	291.236	0.151	0.0109
0.5	7730	291.336	0.203	0.0049
0.5	7730	291.551	0.128	0.0039
0.5	7730	292.051	0.102	0.0026
0.5	7730	293.111	0.0798	0.0022
0.5	7730	296.021	0.0595	0.0019
0.5	7730	301.907	0.0493	0.0017
0.5	7730	308.005	0.0462	0.0017
0.5	7730	318.131	0.0403	0.0016
0.5	6960	292.054	0.0913	0.0024
0.74	6630	292.638	0.0593	0.0019
0.74	6630	293.153	0.0578	0.0019
0.74	6630	296.05	0.0507	0.0018
0.74	6630	296.055	0.0506	0.0018
0.74	6630	299.01	0.0467	0.0017
0.74	6630	302.253	0.0436	0.0017
0.74	6630	308.179	0.0413	0.0016
0.74	6630	318.111	0.0382	0.0016
0.74	9120	293.154	0.213	0.0141
0.74	9120	293.168	0.16	0.0036
0.74	9120	293.239	0.156	0.009
0.74	9120	293.339	0.135	0.004
0.74	9120	293.531	0.116	0.0029
0.74	9120	293.952	0.101	0.0027
0.74	9120	294.325	0.0842	0.0023
0.74	9120	294.723	0.0824	0.0022
0.74	9120	296.032	0.0663	0.002
0.74	9120	298.485	0.06	0.0019
0.74	9120	308.064	0.0485	0.0017
0.74	9120	318.038	0.0354	0.0015
