Measured thermophysical data. A Vibrating Plate Fabricated by the Methods of Microelectromechanical Systems (MEMS) for the Simultaneous Measurement of Density and Viscosity: Results for Argon at Temperatures Between 323 and 423K at Pressures up to 68MPa
Source: Int. J. Thermophys., 2006, 10.1007/s10765-006-0114-6
Compound 1: argon, Ar, InChI=1S/Ar, purity 99.9999%

System: argon; phases: Fluid (supercritical or subcritical phases)
Property: Viscosity, Pa*s (Fluid (supercritical or subcritical phases)); method: vibrating plate method
Temperature, K	Pressure, kPa	Viscosity, Pa*s	uncertainty
323.162	7006	2.744e-05	8.6e-07
323.162	13877	2.979e-05	8.8e-07
323.162	20899	3.257e-05	9.4e-07
323.162	27679	3.52e-05	1e-06
323.162	34459	3.82e-05	1.1e-06
323.162	41249	4.15e-05	1.2e-06
323.162	48119	4.48e-05	1.3e-06
323.162	54885	4.81e-05	1.4e-06
323.162	61690	5.12e-05	1.5e-06
323.162	68312	5.42e-05	1.6e-06
348.148	6978	2.904e-05	9.1e-07
348.148	17496	3.308e-05	9.7e-07
348.148	27653	3.58e-05	1e-06
348.148	34469	3.81e-05	1.1e-06
348.148	41288	4.07e-05	1.2e-06
348.148	48154	4.34e-05	1.2e-06
348.148	54879	4.63e-05	1.3e-06
348.148	61690	4.9e-05	1.4e-06
348.148	68529	5.1e-05	1.5e-06
398.106	7360	2.92e-05	9.1e-07
398.106	13876	3.138e-05	9.2e-07
398.106	27719	3.62e-05	1e-06
398.106	34448	3.86e-05	1.1e-06
398.106	41294	4.17e-05	1.2e-06
398.106	48140	4.41e-05	1.3e-06
398.106	54949	4.66e-05	1.3e-06
398.106	61785	4.91e-05	1.4e-06
423.11	7272	2.996e-05	9.6e-07
423.11	14124	3.214e-05	1.01e-06
423.11	21056	3.42e-05	1e-06
423.11	27786	3.59e-05	1e-06
423.11	34605	3.76e-05	2.09e-06
423.11	41249	3.98e-05	1.1e-06
423.11	48189	4.18e-05	1.2e-06
423.11	48197	4.21e-05	1.2e-06
423.11	55018	4.44e-05	1.3e-06
423.11	61834	4.67e-05	1.4e-06
423.11	68620	4.93e-05	1.4e-06
423.112	7008	3.113e-05	1e-06
423.112	14381	3.398e-05	1.05e-06
423.112	21065	3.61e-05	1e-06
423.112	27779	3.81e-05	1.1e-06
423.112	34529	4.03e-05	2.14e-06

System: argon; phases: Fluid (supercritical or subcritical phases)
Property: Mass density, kg/m3 (Fluid (supercritical or subcritical phases)); method: vibrating plate method
Temperature, K	Pressure, kPa	Mass density, kg/m3	uncertainty
323.162	7006	107.17	1.04
323.162	13877	213.45	1.16
323.162	20899	316.3	1.29
323.162	27679	408.2	1.45
323.162	34459	489.8	1.6
323.162	41249	561.2	1.78
323.162	48119	624.2	1.86
323.162	54885	678.5	1.94
323.162	61690	726.2	2.13
323.162	68312	767.5	2.23
348.148	6978	97.69	0.93
348.148	17496	241.15	1.13
348.148	27653	368.7	1.35
348.148	34469	444.9	1.5
348.148	41288	513.1	1.58
348.148	48154	574.3	1.76
348.148	54879	627.8	1.85
348.148	61690	676.3	1.94
348.148	68529	719.8	2.04
398.106	7360	88.47	0.8
398.106	13876	165.12	0.87
398.106	27719	316.2	1.13
398.106	34448	382.2	1.29
398.106	41294	443.6	1.37
398.106	48140	499.6	1.56
398.106	54949	550.4	1.65
398.106	61785	596.9	1.75
423.11	7272	82.13	0.75
423.11	14124	157.84	0.84
423.11	21056	231.04	0.95
423.11	27786	297.92	1.07
423.11	34605	361	1.35
423.11	41249	417.7	1.27
423.11	48189	472.3	1.46
423.11	48197	472.3	1.46
423.11	55018	521.5	1.55
423.11	61834	566.5	1.64
423.11	68620	608	1.74
423.112	7008	79.27	0.74
423.112	14381	160.69	0.85
423.112	21065	231.06	0.95
423.112	27779	297.59	1.07
423.112	34529	359.8	1.35
