Measured thermophysical data. Critical Parameters and Critical-Region ( p, .rho., T) Data of trans-1,1,1,3-Tetrafluorobut-2-ene [HFO-1354mzy(E)]
Source: Int. J. Thermophys., 2017, 10.1007/s10765-017-2256-0
Compound 1: trans-1,1,1,3-tetrafluoro-2-butene, C4H4F4, InChI=1S/C4H4F4/c1-3(5)2-4(6,7)8/h2H,1H3/b3-2+
Compound 2: 2-methylpropane, C4H10, InChI=1S/C4H10/c1-4(2)3/h4H,1-3H3, purity 99.99%

System: trans-1,1,1,3-tetrafluoro-2-butene; phases: Liquid, Gas
Property: Critical temperature, K (Liquid); method: Visual observation in a stirred cell
Critical temperature, K	uncertainty
424.73	0.13

System: trans-1,1,1,3-tetrafluoro-2-butene; phases: Fluid (supercritical or subcritical phases)
Property: Mass density, kg/m3 (Fluid (supercritical or subcritical phases)); method: Bellows volumetry
Temperature, K	Pressure, kPa	Mass density, kg/m3	uncertainty
424.73	3249.3	415.41	6.37
424.73	3249.8	418.86	6.18
424.73	3250.3	422.44	5.48
424.73	3250.4	426.35	4.75
424.73	3251	430.02	4.44
424.73	3251.8	433.7	5.74
424.73	3253	437.22	5.96
424.73	3254	440.96	6.58
424.73	3254.9	444.9	6.37
424.73	3256.1	448.68	4.75
430	3487.8	350	1.34
430	3511.2	375.03	1.56
430	3526.9	399.96	1.66
430	3547.9	424.74	1.51
430	3567.7	449.77	1.49
430	3589.4	474.86	1.33
430	3614.7	499.94	1.24
440	4320.3	498.86	0.52
440	4247	474.42	0.54
440	4182.8	449.72	0.58
440	4123.1	424.75	0.61
440	4067.1	399.75	0.62
440	4010.1	374.94	0.59
440	3945.1	349.96	0.57
450	4696.9	424.67	0.43
450	4598.5	399.89	0.45
450	4500.9	374.89	0.45
450	4401.8	349.91	0.44
450	4806	449.47	0.42
450	4926.3	475.44	0.41
450	5056.9	500.13	0.4

System: 2-methylpropane; phases: Liquid, Gas
Property: Critical temperature, K (Liquid); method: Visual observation in a stirred cell
Critical temperature, K	uncertainty
407.69	0.05

System: 2-methylpropane; phases: Fluid (supercritical or subcritical phases)
Fixed: Temperature, K = 407.69
Property: Mass density, kg/m3 (Fluid (supercritical or subcritical phases)); method: Bellows volumetry
Pressure, kPa	Mass density, kg/m3	uncertainty
3627.5	203.1	1.81
3629.3	205.78	2.02
3631.2	208.58	2.18
3632.8	211.59	3.26
3634	214.88	4.64
3634.8	218.47	4.46
3635.3	222.42	5.08
3635.4	223.5	5.07
3635.7	225.57	5.09
3635.7	226.64	5.1
3636.3	228.77	5.03
3637	230.86	5.41
3638.4	235.26	4.31
3639.6	239.96	4.21
3641.1	244.93	4.31
