Measured thermophysical data. Solubility of Hydrogen Sulfide in [bmim][PF6]
Source: Int. J. Thermophys., 2007, 10.1007/s10765-007-0185-z
Compound 1: hydrogen sulfide, H2S, InChI=1S/H2S/h1H2
Compound 2: 1-butyl-3-methylimidazolium hexafluorophosphate, C8H15F6N2P, InChI=1S/C8H15N2.F6P/c1-3-4-5-10-7-6-9(2)8-10;1-7(2,3,4,5)6/h6-8H,3-5H2,1-2H3;/q+1;-1

System: hydrogen sulfide + 1-butyl-3-methylimidazolium hexafluorophosphate; phases: Liquid mixture 1, Liquid mixture 2, Gas
Property: Vapor or sublimation pressure, kPa (Liquid mixture 1); method: Closed cell (Static) method
Temperature, K	Vapor or sublimation pressure, kPa	uncertainty
298.15	2120	33

System: hydrogen sulfide + 1-butyl-3-methylimidazolium hexafluorophosphate; phases: Gas, Liquid
Property: Mole fraction of hydrogen sulfide (Gas); method: Titration method
Temperature, K	Pressure, kPa	Mole fraction of hydrogen sulfide	uncertainty
298.15	2100	0.873	0.036
313.15	2890	0.853	0.035
343.15	5400	0.792	0.033

System: hydrogen sulfide + 1-butyl-3-methylimidazolium hexafluorophosphate; phases: Liquid, Gas
Property: Mole fraction of hydrogen sulfide (Liquid); method: Titration method
Temperature, K	Pressure, kPa	Mole fraction of hydrogen sulfide	uncertainty
298.15	69	0.046	0.014
298.15	115	0.077	0.013
298.15	128	0.086	0.013
298.15	276	0.175	0.013
298.15	559	0.317	0.016
298.15	1100	0.54	0.024
298.15	1700	0.739	0.031
298.15	2000	0.84	0.035
313.15	115	0.056	0.009
313.15	335	0.153	0.01
313.15	620	0.267	0.013
313.15	1020	0.401	0.017
313.15	1850	0.616	0.026
343.15	120	0.035	0.006
343.15	310	0.09	0.006
343.15	800	0.21	0.009
343.15	1590	0.364	0.015
343.15	2380	0.482	0.02
343.15	3650	0.631	0.026
343.15	800	0.213	0.01
373.15	132	0.016	0.004
373.15	135	0.025	0.004
373.15	332	0.059	0.004
373.15	960	0.161	0.007
373.15	2490	0.357	0.015
373.15	4700	0.555	0.023
373.15	7500	0.709	0.029
373.15	9200	0.767	0.031
403.15	262	0.032	0.003
403.15	630	0.076	0.004
403.15	1150	0.135	0.006
403.15	2530	0.269	0.011
403.15	4210	0.401	0.017
403.15	7020	0.545	0.023
403.15	9630	0.643	0.027
