Measured thermophysical data. Solubility of Carbon Dioxide in Pentaerythritol Tetrabutyrate (PEC4) and Comparison with Other Linear Chained Pentaerythritol Tetraalkyl Esters
Source: Int. J. Thermophys., 2009, 10.1007/s10765-009-0580-8
Compound 1: carbon dioxide, CO2, InChI=1S/CO2/c2-1-3, purity 99.95%
Compound 2: pentaerythritol tetrabutyrate, C21H36O8, InChI=1S/C21H36O8/c1-5-9-17(22)26-13-21(14-27-18(23)10-6-2,15-28-19(24)11-7-3)16-29-20(25)12-8-4/h5-16H2,1-4H3, purity 98%

System: carbon dioxide + pentaerythritol tetrabutyrate; phases: Liquid, Gas
Property: Vapor or sublimation pressure, kPa (Liquid); method: Closed cell (Static) method
Temperature, K	Mole fraction of carbon dioxide	Vapor or sublimation pressure, kPa	uncertainty
343.15	0.0655	293	215
323.15	0.0753	265	179
283.15	0.0872	163	98
303.15	0.089	235	130
343.15	0.0929	438	205
273.15	0.0952	142	74
323.15	0.1067	396	166
263.15	0.1077	126	69
303.15	0.1259	352	131
273.15	0.134	205	79
343.15	0.1537	760	210
323.15	0.1746	688	172
303.15	0.2041	608	129
343.15	0.2243	1189	228
283.15	0.2397	501	97
273.15	0.2525	427	93
323.15	0.2531	1074	179
263.15	0.2785	379	78
303.15	0.2915	947	134
343.15	0.3188	1847	226
323.15	0.3544	1662	180
343.15	0.3743	2310	258
283.15	0.3919	952	95
303.15	0.403	1456	137
323.15	0.4112	2073	205
343.15	0.4398	2944	291
303.15	0.4628	1811	157
323.15	0.4803	2631	232
283.15	0.5016	1375	103
303.15	0.5348	2285	175
343.15	0.5451	4187	254
273.15	0.5561	1295	74
323.15	0.585	3714	221
263.15	0.5936	1123	61
343.15	0.5959	4921	297
283.15	0.5972	1842	106
253.15	0.6311	940	65
323.15	0.6365	4343	264
303.15	0.6419	3185	148
273.15	0.6427	1664	82
243.15	0.6649	754	53
283.15	0.6783	2341	112
263.15	0.6793	1422	71
343.15	0.6851	6454	327
273.15	0.6894	1894	91
303.15	0.6922	3692	165
253.15	0.7131	1171	57
323.15	0.7189	5639	250
273.15	0.7234	2080	88
263.15	0.7241	1604	71
283.15	0.7247	2653	112
343.15	0.7391	7872	390
243.15	0.7422	920	48
253.15	0.7554	1302	55
263.15	0.7566	1745	67
273.15	0.7594	2285	81
323.15	0.7734	6763	261
303.15	0.7737	4694	165
243.15	0.7806	1009	49
253.15	0.7854	1401	56
263.15	0.7899	1893	67
283.15	0.7921	3187	87
343.15	0.7972	9555	294
243.15	0.8078	1073	47
253.15	0.8153	1500	51
273.15	0.825	2670	71
303.15	0.8257	5432	179
303.15	0.8291	5491	179
323.15	0.8298	7993	252
243.15	0.8342	1135	46
263.15	0.8486	2152	53
283.15	0.86	3748	72
253.15	0.8663	1661	47
323.15	0.8759	9317	235
243.15	0.8784	1233	43
303.15	0.8798	6242	107
273.15	0.9097	3165	57
283.15	0.9162	4150	55
263.15	0.9198	2440	49
253.15	0.9263	1828	45
303.15	0.9304	6863	86
243.15	0.9306	1331	42
283.15	0.9669	4372	43
