Measured thermophysical data. Experimental Study of the Dynamic Viscosity Deviations in the Binary Systems: Hexane + Ethylbenzene, + o-Xylene, + m-Xylene, + p-Xylene at 298.15 K
Source: Int. J. Thermophys., 2009, 10.1007/s10765-009-0622-2
Compound 1: hexane, C6H14, InChI=1S/C6H14/c1-3-5-6-4-2/h3-6H2,1-2H3, purity 99.5%
Compound 2: ethylbenzene, C8H10, InChI=1S/C8H10/c1-2-8-6-4-3-5-7-8/h3-7H,2H2,1H3, purity 99%
Compound 3: 1,2-dimethylbenzene, C8H10, InChI=1S/C8H10/c1-7-5-3-4-6-8(7)2/h3-6H,1-2H3, purity 99%
Compound 4: 1,3-dimethylbenzene, C8H10, InChI=1S/C8H10/c1-7-4-3-5-8(2)6-7/h3-6H,1-2H3, purity 99%
Compound 5: 1,4-dimethylbenzene, C8H10, InChI=1S/C8H10/c1-7-3-5-8(2)6-4-7/h3-6H,1-2H3, purity 99%

System: hexane; phases: Liquid
Property: Mass density, kg/m3 (Liquid); method: VIBTUB:UFactor:4
Temperature, K	Pressure, kPa	Mass density, kg/m3	uncertainty
298.15	101.325	654.7	0.7

System: hexane; phases: Liquid
Property: Viscosity, Pa*s (Liquid); method: CAPTUB:UFactor:2
Temperature, K	Pressure, kPa	Viscosity, Pa*s	uncertainty
298.15	101.325	0.0002973	6.2e-06

System: ethylbenzene; phases: Liquid
Property: Mass density, kg/m3 (Liquid); method: VIBTUB:UFactor:4
Temperature, K	Pressure, kPa	Mass density, kg/m3	uncertainty
298.15	101.325	862.37	0.49

System: ethylbenzene; phases: Liquid
Property: Viscosity, Pa*s (Liquid); method: CAPTUB:UFactor:2
Temperature, K	Pressure, kPa	Viscosity, Pa*s	uncertainty
298.15	101.325	0.0006369	1.13e-05

System: 1,2-dimethylbenzene; phases: Liquid
Property: Mass density, kg/m3 (Liquid); method: VIBTUB:UFactor:4
Temperature, K	Pressure, kPa	Mass density, kg/m3	uncertainty
298.15	101.325	874.89	0.48

System: 1,2-dimethylbenzene; phases: Liquid
Property: Viscosity, Pa*s (Liquid); method: CAPTUB:UFactor:2
Temperature, K	Pressure, kPa	Viscosity, Pa*s	uncertainty
298.15	101.325	0.0007506	1.3e-05

System: 1,3-dimethylbenzene; phases: Liquid
Property: Mass density, kg/m3 (Liquid); method: VIBTUB:UFactor:4
Temperature, K	Pressure, kPa	Mass density, kg/m3	uncertainty
298.15	101.325	859.78	0.49

System: 1,3-dimethylbenzene; phases: Liquid
Property: Viscosity, Pa*s (Liquid); method: CAPTUB:UFactor:2
Temperature, K	Pressure, kPa	Viscosity, Pa*s	uncertainty
298.15	101.325	0.000583	1.05e-05

System: 1,4-dimethylbenzene; phases: Liquid
Property: Mass density, kg/m3 (Liquid); method: VIBTUB:UFactor:4
Temperature, K	Pressure, kPa	Mass density, kg/m3	uncertainty
298.15	101.325	856.51	0.5

System: 1,4-dimethylbenzene; phases: Liquid
Property: Viscosity, Pa*s (Liquid); method: CAPTUB:UFactor:2
Temperature, K	Pressure, kPa	Viscosity, Pa*s	uncertainty
298.15	101.325	0.0005999	1.08e-05

System: ethylbenzene + hexane; phases: Liquid
Fixed: Temperature, K = 298.15
Fixed: Pressure, kPa = 101
Property: Viscosity, Pa*s (Liquid); method: CAPTUB:UFactor:2
Mole fraction of hexane	Viscosity, Pa*s	uncertainty
0.0437	0.0006071	1.09e-05
0.0884	0.0005751	1.04e-05
0.183	0.0005169	9.5e-06
0.2262	0.0004791	8.9e-06
0.2774	0.0004672	8.8e-06
0.3283	0.000445	8.4e-06
0.3784	0.0004234	8.1e-06
0.4359	0.0004047	7.8e-06
0.488	0.0003902	7.6e-06
0.5429	0.0003761	7.4e-06
0.5916	0.0003654	7.2e-06
0.6534	0.0003527	7e-06
0.705	0.0003426	6.9e-06
0.7644	0.0003326	6.7e-06
0.809	0.000325	6.6e-06
0.8882	0.000313	6.4e-06
0.9478	0.0003046	6.3e-06

System: 1,2-dimethylbenzene + hexane; phases: Liquid
Fixed: Temperature, K = 298.15
Fixed: Pressure, kPa = 101
Property: Viscosity, Pa*s (Liquid); method: CAPTUB:UFactor:2
Mole fraction of hexane	Viscosity, Pa*s	uncertainty
0.052	0.000678	1.2e-05
0.1413	0.0005944	1.07e-05
0.2482	0.0005239	9.6e-06
0.2901	0.000493	9.1e-06
0.355	0.000462	8.7e-06
0.4004	0.0004425	8.4e-06
0.4815	0.0004126	7.9e-06
0.51	0.0004031	7.8e-06
0.5856	0.0003816	7.5e-06
0.6351	0.0003711	7.3e-06
0.6753	0.0003632	7.2e-06
0.7858	0.0003344	6.7e-06
0.8317	0.0003264	6.6e-06
0.9014	0.000314	6.4e-06

System: 1,2-dimethylbenzene + hexane; phases: Liquid
Fixed: Temperature, K = 298.15
Fixed: Pressure, kPa = 101
Property: Mass density, kg/m3 (Liquid); method: VIBTUB:UFactor:4
Mole fraction of hexane	Mass density, kg/m3	uncertainty
0.052	863.09	0.48
0.1413	842.86	0.49
0.2482	818.74	0.51
0.2901	809.33	0.52
0.355	794.79	0.53
0.4004	784.66	0.54
0.4815	766.65	0.56
0.51	760.35	0.56
0.5856	743.71	0.58
0.6351	732.88	0.59
0.6753	724.12	0.6
0.7858	700.23	0.63
0.8317	690.38	0.64
0.9014	675.52	0.66

System: 1,3-dimethylbenzene + hexane; phases: Liquid
Fixed: Temperature, K = 298.15
Fixed: Pressure, kPa = 101
Property: Viscosity, Pa*s (Liquid); method: CAPTUB:UFactor:2
Mole fraction of hexane	Viscosity, Pa*s	uncertainty
0.1329	0.0004984	9.3e-06
0.1519	0.0004896	9.1e-06
0.2717	0.0004418	8.4e-06
0.339	0.0004221	8.1e-06
0.4303	0.0003978	7.7e-06
0.448	0.0003935	7.7e-06
0.5734	0.0003652	7.2e-06
0.643	0.0003513	7e-06
0.6663	0.0003473	7e-06
0.719	0.0003389	6.8e-06
0.8049	0.0003238	6.6e-06
0.873	0.0003175	6.5e-06
0.9278	0.0003115	6.4e-06

System: 1,4-dimethylbenzene + hexane; phases: Liquid
Fixed: Temperature, K = 298.15
Fixed: Pressure, kPa = 101
Property: Viscosity, Pa*s (Liquid); method: CAPTUB:UFactor:2
Mole fraction of hexane	Viscosity, Pa*s	uncertainty
0.0423	0.000566	1.03e-05
0.1073	0.0005235	9.6e-06
0.2137	0.0004702	8.8e-06
0.2956	0.0004378	8.3e-06
0.3769	0.0004119	7.9e-06
0.4201	0.0003998	7.7e-06
0.5355	0.0003717	7.3e-06
0.562	0.0003654	7.2e-06
0.6427	0.0003502	7e-06
0.7455	0.0003324	6.7e-06
0.7909	0.0003256	6.6e-06
0.8792	0.000313	6.4e-06
0.9599	0.0003024	6.3e-06

System: 1,4-dimethylbenzene + hexane; phases: Liquid
Fixed: Temperature, K = 298.15
Fixed: Pressure, kPa = 101
Property: Mass density, kg/m3 (Liquid); method: VIBTUB:UFactor:4
Mole fraction of hexane	Mass density, kg/m3	uncertainty
0.0423	847.8	0.5
0.1073	834.45	0.51
0.2137	812.6	0.52
0.2956	795.81	0.53
0.3769	779.21	0.55
0.4201	770.42	0.56
0.5355	747.03	0.58
0.562	741.69	0.58
0.6427	725.47	0.6
0.7455	704.95	0.62
0.7909	695.94	0.63
0.8792	678.48	0.66
0.9599	662.62	0.68
