Measured thermophysical data. Measurements of the Calorific Value of Methane with the New GERG Reference Calorimeter
Source: Int. J. Thermophys., 2010, 10.1007/s10765-010-0714-z
Compound 1: carbon dioxide, CO2, InChI=1S/CO2/c2-1-3
Compound 2: water, H2O, InChI=1S/H2O/h1H2
Compound 3: oxygen, O2, InChI=1S/O2/c1-2
Compound 4: methane, CH4, InChI=1S/CH4/h1H4

Reaction: -1 methane + 1 carbon dioxide + 2 water + -2 oxygen
Property: Molar enthalpy of reaction, kJ/mol
-890.578
