Measured thermophysical data. The Precise Measurement of Vapor Liquid Equilibrium Properties of the CO2/Isopentane Binary Mixture, and Fitted Parameters for a Helmholtz Energy Mixture Model
Source: Int. J. Thermophys., 2017, 10.1007/s10765-017-2283-x
Compound 1: carbon dioxide, CO2, InChI=1S/CO2/c2-1-3
Compound 2: 2-methylbutane, C5H12, InChI=1S/C5H12/c1-4-5(2)3/h5H,4H2,1-3H3
Compound 3: ethanol, C2H6O, InChI=1S/C2H6O/c1-2-3/h3H,2H2,1H3

System: carbon dioxide + 2-methylbutane; phases: Liquid, Gas
Property: Vapor or sublimation pressure, kPa (Liquid); method: Closed cell (Static) method
Temperature, K	Mole fraction of carbon dioxide	Vapor or sublimation pressure, kPa	uncertainty
300	0.16	1260	138
300	0.274	2040	138
300	0.395	2872	130
300	0.504	3488	114
300	0.601	3972	120
300	0.631	4176	113
300	0.661	4374	116
300	0.748	4748	103
310	0.153	1450	133
310	0.288	2317	149
310	0.386	3187	166
310	0.489	3953	146
310	0.582	4566	127
310	0.641	4854	134
310	0.659	5062	133
310	0.742	5550	133
320	0.38	3554	164
320	0.487	4403	162
320	0.579	5114	159
320	0.617	5488	161
320	0.657	5695	167
320	0.728	6325	190
330	0.152	1784	190
330	0.377	3914	189
330	0.483	4847	187
330	0.57	5668	187
330	0.622	6092	209
330	0.647	6358	209
330	0.71	7070	237

System: carbon dioxide + 2-methylbutane; phases: Gas, Liquid
Property: Mole fraction of carbon dioxide (Gas); method: Chromatography
Temperature, K	Mole fraction of carbon dioxide	Mole fraction of carbon dioxide	uncertainty
300	0.16	0.884	0.021
300	0.274	0.928	0.02
300	0.395	0.934	0.02
300	0.504	0.931	0.02
300	0.601	0.926	0.02
300	0.631	0.931	0.02
300	0.661	0.934	0.02
300	0.748	0.945	0.02
310	0.153	0.874	0.022
310	0.288	0.918	0.021
310	0.386	0.926	0.02
310	0.489	0.934	0.02
310	0.582	0.92	0.02
310	0.641	0.925	0.02
310	0.659	0.924	0.02
310	0.742	0.946	0.021
320	0.38	0.911	0.02
320	0.487	0.927	0.02
320	0.579	0.907	0.02
320	0.617	0.911	0.02
320	0.657	0.917	0.021
320	0.728	0.939	0.021
330	0.152	0.799	0.022
330	0.377	0.893	0.021
330	0.483	0.891	0.02
330	0.57	0.893	0.02
330	0.622	0.902	0.02
330	0.647	0.905	0.02
330	0.71	0.92	0.021

System: carbon dioxide + ethanol; phases: Liquid, Gas
Fixed: Temperature, K = 291.15
Property: Vapor or sublimation pressure, kPa (Liquid); method: Closed cell (Static) method
Mole fraction of carbon dioxide	Vapor or sublimation pressure, kPa	uncertainty
0.081	1176	34
0.124	1493	43
0.16	1942	56

System: carbon dioxide + ethanol; phases: Gas, Liquid
Fixed: Temperature, K = 291.15
Property: Mole fraction of carbon dioxide (Gas); method: Chromatography
Mole fraction of carbon dioxide	Mole fraction of carbon dioxide	uncertainty
0.081	0.929	0.02
0.124	0.953	0.02
