Measured thermophysical data. Study on Solution Properties of Binary Mixtures of Some Industrially Important Solvents with Cyclohexylamine and Cyclohexanone at 298.15 K
Source: Int. J. Thermophys., 2010, 10.1007/s10765-010-0752-6
Compound 1: cyclohexylamine, C6H13N, InChI=1S/C6H13N/c7-6-4-2-1-3-5-6/h6H,1-5,7H2, purity 99%
Compound 2: butyl ethanoate, C6H12O2, InChI=1S/C6H12O2/c1-3-4-5-8-6(2)7/h3-5H2,1-2H3, purity 99%
Compound 3: butanone, C4H8O, InChI=1S/C4H8O/c1-3-4(2)5/h3H2,1-2H3, purity 99%
Compound 4: 1-butanamine, C4H11N, InChI=1S/C4H11N/c1-2-3-4-5/h2-5H2,1H3, purity 99%
Compound 5: 2-methyl-2-propanamine, C4H11N, InChI=1S/C4H11N/c1-4(2,3)5/h5H2,1-3H3, purity 99%
Compound 6: 2-butoxyethan-1-ol, C6H14O2, InChI=1S/C6H14O2/c1-2-3-5-8-6-4-7/h7H,2-6H2,1H3
Compound 7: cyclohexanone, C6H10O, InChI=1S/C6H10O/c7-6-4-2-1-3-5-6/h1-5H2, purity 99%

System: cyclohexylamine; phases: Liquid
Property: Viscosity, Pa*s (Liquid); method: Capillary tube (Ostwald; Ubbelohde) method
Temperature, K	Pressure, kPa	Viscosity, Pa*s	uncertainty
298.15	101	0.001753	1.3e-05

System: cyclohexylamine; phases: Liquid
Property: Speed of sound, m/s (Liquid); method: Sing-around technique in a fixed-path interferometer
Temperature, K	Pressure, kPa	Speed of sound, m/s	uncertainty
298.15	101	1416.4	0.8

System: cyclohexylamine; phases: Liquid
Property: Mass density, kg/m3 (Liquid); method: Pycnometric method
Temperature, K	Pressure, kPa	Mass density, kg/m3	uncertainty
298.15	101	862.3	0.6

System: butyl ethanoate; phases: Liquid
Property: Viscosity, Pa*s (Liquid); method: Capillary tube (Ostwald; Ubbelohde) method
Temperature, K	Pressure, kPa	Viscosity, Pa*s	uncertainty
298.15	101	0.000668	6e-06

System: butyl ethanoate; phases: Liquid
Property: Speed of sound, m/s (Liquid); method: Sing-around technique in a fixed-path interferometer
Temperature, K	Pressure, kPa	Speed of sound, m/s	uncertainty
298.15	101	1176	0.7

System: butyl ethanoate; phases: Liquid
Property: Mass density, kg/m3 (Liquid); method: Pycnometric method
Temperature, K	Pressure, kPa	Mass density, kg/m3	uncertainty
298.15	101	874.4	0.6

System: butanone; phases: Liquid
Property: Viscosity, Pa*s (Liquid); method: Capillary tube (Ostwald; Ubbelohde) method
Temperature, K	Pressure, kPa	Viscosity, Pa*s	uncertainty
298.15	101	0.0004	4e-06

System: butanone; phases: Liquid
Property: Speed of sound, m/s (Liquid); method: Sing-around technique in a fixed-path interferometer
Temperature, K	Pressure, kPa	Speed of sound, m/s	uncertainty
298.15	101	1195	0.7

System: butanone; phases: Liquid
Property: Mass density, kg/m3 (Liquid); method: Pycnometric method
Temperature, K	Pressure, kPa	Mass density, kg/m3	uncertainty
298.15	101	798.1	0.6

System: 1-butanamine; phases: Liquid
Property: Viscosity, Pa*s (Liquid); method: Capillary tube (Ostwald; Ubbelohde) method
Temperature, K	Pressure, kPa	Viscosity, Pa*s	uncertainty
298.15	101	0.000493	5e-06

System: 1-butanamine; phases: Liquid
Property: Speed of sound, m/s (Liquid); method: Sing-around technique in a fixed-path interferometer
Temperature, K	Pressure, kPa	Speed of sound, m/s	uncertainty
298.15	101	1251.6	0.7

System: 1-butanamine; phases: Liquid
Property: Mass density, kg/m3 (Liquid); method: Pycnometric method
Temperature, K	Pressure, kPa	Mass density, kg/m3	uncertainty
298.15	101	731.9	0.6

System: 2-methyl-2-propanamine; phases: Liquid
Fixed: Temperature, K = 298.15
Fixed: Pressure, kPa = 101
Property: Viscosity, Pa*s (Liquid); method: Capillary tube (Ostwald; Ubbelohde) method
Viscosity, Pa*s	uncertainty
0.000439	4e-06
0.0004394	4.1e-06

System: 2-methyl-2-propanamine; phases: Liquid
Property: Speed of sound, m/s (Liquid); method: Sing-around technique in a fixed-path interferometer
Temperature, K	Pressure, kPa	Speed of sound, m/s	uncertainty
298.15	101	1260	0.7

System: 2-methyl-2-propanamine; phases: Liquid
Property: Mass density, kg/m3 (Liquid); method: Pycnometric method
Temperature, K	Pressure, kPa	Mass density, kg/m3	uncertainty
298.15	101	696	0.6

System: 2-butoxyethan-1-ol; phases: Liquid
Property: Viscosity, Pa*s (Liquid); method: Capillary tube (Ostwald; Ubbelohde) method
Temperature, K	Pressure, kPa	Viscosity, Pa*s	uncertainty
298.15	101	0.002782	2e-05

System: 2-butoxyethan-1-ol; phases: Liquid
Property: Speed of sound, m/s (Liquid); method: Sing-around technique in a fixed-path interferometer
Temperature, K	Pressure, kPa	Speed of sound, m/s	uncertainty
298.15	101	1305.6	0.8

System: 2-butoxyethan-1-ol; phases: Liquid
Property: Mass density, kg/m3 (Liquid); method: Pycnometric method
Temperature, K	Pressure, kPa	Mass density, kg/m3	uncertainty
298.15	101	902	0.6

System: cyclohexanone; phases: Liquid
Property: Viscosity, Pa*s (Liquid); method: Capillary tube (Ostwald; Ubbelohde) method
Temperature, K	Pressure, kPa	Viscosity, Pa*s	uncertainty
298.15	101	0.00202	1.5e-05

System: cyclohexanone; phases: Liquid
Property: Speed of sound, m/s (Liquid); method: Sing-around technique in a fixed-path interferometer
Temperature, K	Pressure, kPa	Speed of sound, m/s	uncertainty
298.15	101	1412	0.8

System: cyclohexanone; phases: Liquid
Property: Mass density, kg/m3 (Liquid); method: Pycnometric method
Temperature, K	Pressure, kPa	Mass density, kg/m3	uncertainty
298.15	101	941.6	0.6

System: cyclohexylamine + butyl ethanoate; phases: Liquid
Fixed: Temperature, K = 298.15
Fixed: Pressure, kPa = 101
Property: Viscosity, Pa*s (Liquid); method: Capillary tube (Ostwald; Ubbelohde) method
Mole fraction of cyclohexylamine	Viscosity, Pa*s	uncertainty
0	0.000668	5.7e-06
0.1151	0.0006149	5.3e-06
0.2265	0.0006836	5.8e-06
0.3342	0.0008301	6.9e-06
0.4385	0.0010324	8.3e-06
0.5394	0.0012533	9.8e-06
0.6373	0.0014554	1.12e-05
0.7321	0.0016184	1.24e-05
0.8241	0.0017342	1.32e-05
0.9134	0.0017794	1.35e-05
1	0.001753	1.33e-05

System: cyclohexylamine + butyl ethanoate; phases: Liquid
Fixed: Temperature, K = 298.15
Fixed: Pressure, kPa = 101
Property: Speed of sound, m/s (Liquid); method: Sing-around technique in a fixed-path interferometer
Mole fraction of cyclohexylamine	Speed of sound, m/s	uncertainty
0	1176	0.7
0.1151	1183.5	0.7
0.2265	1191.5	0.7
0.3342	1202.6	0.7
0.4385	1217	0.7
0.5394	1233.6	0.7
0.6373	1255.5	0.8
0.7321	1283.6	0.8
0.8241	1317.2	0.8
0.9134	1362.1	0.8
1	1416.4	0.8

System: cyclohexylamine + butyl ethanoate; phases: Liquid
Fixed: Temperature, K = 298.15
Fixed: Pressure, kPa = 101
Property: Mass density, kg/m3 (Liquid); method: Pycnometric method
Mole fraction of cyclohexylamine	Mass density, kg/m3	uncertainty
0	874.4	0.6
0.1151	872.8	0.6
0.2265	871	0.6
0.3342	869.2	0.6
0.4385	867.4	0.6
0.5394	865.8	0.6
0.6373	864.3	0.6
0.7321	863.3	0.6
0.8241	862.5	0.6
0.9134	862.1	0.6
1	862.3	0.6

System: butanone + cyclohexylamine; phases: Liquid
Fixed: Temperature, K = 298.15
Fixed: Pressure, kPa = 101
Property: Viscosity, Pa*s (Liquid); method: Capillary tube (Ostwald; Ubbelohde) method
Mole fraction of cyclohexylamine	Viscosity, Pa*s	uncertainty
0	0.0004	3.8e-06
0.0747	0.0005316	4.8e-06
0.1538	0.0006621	5.7e-06
0.2376	0.0008418	7e-06
0.3265	0.0010424	8.4e-06
0.421	0.0012347	9.7e-06
0.5217	0.0014488	1.12e-05
0.6291	0.0016254	1.24e-05
0.7441	0.0017808	1.35e-05
0.8674	0.0018227	1.38e-05
1	0.001753	1.33e-05

System: butanone + cyclohexylamine; phases: Liquid
Fixed: Temperature, K = 298.15
Fixed: Pressure, kPa = 101
Property: Speed of sound, m/s (Liquid); method: Sing-around technique in a fixed-path interferometer
Mole fraction of cyclohexylamine	Speed of sound, m/s	uncertainty
0	1195	0.7
0.0747	1204.3	0.7
0.1538	1213.8	0.7
0.2376	1224.9	0.7
0.3265	1238.4	0.7
0.421	1253.3	0.7
0.5217	1271.9	0.8
0.6291	1293.9	0.8
0.7441	1324.9	0.8
0.8674	1362.3	0.8
1	1416.4	0.8

System: butanone + cyclohexylamine; phases: Liquid
Fixed: Temperature, K = 298.15
Fixed: Pressure, kPa = 101
Property: Mass density, kg/m3 (Liquid); method: Pycnometric method
Mole fraction of cyclohexylamine	Mass density, kg/m3	uncertainty
0	798.1	0.6
0.0747	805.3	0.6
0.1538	812.5	0.6
0.2376	819.8	0.6
0.3265	827.2	0.6
0.421	833.9	0.6
0.5217	840.7	0.6
0.6291	847.1	0.6
0.7441	852.9	0.6
0.8674	858.1	0.6
1	862.3	0.6

System: cyclohexylamine + 1-butanamine; phases: Liquid
Fixed: Temperature, K = 298.15
Fixed: Pressure, kPa = 101
Property: Viscosity, Pa*s (Liquid); method: Capillary tube (Ostwald; Ubbelohde) method
Mole fraction of cyclohexylamine	Viscosity, Pa*s	uncertainty
0	0.000493	4.5e-06
0.0757	0.0006805	5.9e-06
0.1557	0.0008796	7.3e-06
0.2401	0.0011106	8.9e-06
0.3296	0.0013304	1.04e-05
0.4244	0.0015481	1.19e-05
0.5252	0.0017738	1.34e-05
0.6324	0.0019539	1.47e-05
0.7468	0.0020346	1.52e-05
0.8691	0.001976	1.48e-05
1	0.001753	1.33e-05

System: cyclohexylamine + 1-butanamine; phases: Liquid
Fixed: Temperature, K = 298.15
Fixed: Pressure, kPa = 101
Property: Speed of sound, m/s (Liquid); method: Sing-around technique in a fixed-path interferometer
Mole fraction of cyclohexylamine	Speed of sound, m/s	uncertainty
0	1251.6	0.7
0.0757	1258	0.7
0.1557	1266.5	0.7
0.2401	1276.5	0.8
0.3296	1288.8	0.8
0.4244	1302.2	0.8
0.5252	1318.7	0.8
0.6324	1337.6	0.8
0.7468	1358.8	0.8
0.8691	1384.6	0.8
1	1416.4	0.8

System: cyclohexylamine + 1-butanamine; phases: Liquid
Fixed: Temperature, K = 298.15
Fixed: Pressure, kPa = 101
Property: Mass density, kg/m3 (Liquid); method: Pycnometric method
Mole fraction of cyclohexylamine	Mass density, kg/m3	uncertainty
0	731.9	0.6
0.0757	745.3	0.6
0.1557	758.6	0.6
0.2401	772.5	0.6
0.3296	786	0.6
0.4244	799.7	0.6
0.5252	813.2	0.6
0.6324	826.5	0.6
0.7468	839.1	0.6
0.8691	851	0.6
1	862.3	0.6

System: 2-methyl-2-propanamine + cyclohexylamine; phases: Liquid
Fixed: Temperature, K = 298.15
Fixed: Pressure, kPa = 101
Property: Viscosity, Pa*s (Liquid); method: Capillary tube (Ostwald; Ubbelohde) method
Mole fraction of cyclohexylamine	Viscosity, Pa*s	uncertainty
0	0.0004394	4.1e-06
0.0757	0.000569	5.1e-06
0.1557	0.0007445	6.3e-06
0.2401	0.0009554	7.8e-06
0.3296	0.0011727	9.3e-06
0.4244	0.001407	1.09e-05
0.5252	0.0016123	1.23e-05
0.6324	0.0017854	1.35e-05
0.7468	0.0018944	1.43e-05
0.8691	0.0019153	1.44e-05
1	0.001753	1.33e-05

System: 2-methyl-2-propanamine + cyclohexylamine; phases: Liquid
Fixed: Temperature, K = 298.15
Fixed: Pressure, kPa = 101
Property: Speed of sound, m/s (Liquid); method: Sing-around technique in a fixed-path interferometer
Mole fraction of cyclohexylamine	Speed of sound, m/s	uncertainty
0	1260	0.7
0.0757	1264.8	0.7
0.1557	1270.2	0.7
0.2401	1276.6	0.8
0.3296	1284.1	0.8
0.4244	1293.7	0.8
0.5252	1306.5	0.8
0.6324	1323.5	0.8
0.7468	1346.1	0.8
0.8691	1376.8	0.8
1	1416.4	0.8

System: 2-methyl-2-propanamine + cyclohexylamine; phases: Liquid
Fixed: Temperature, K = 298.15
Fixed: Pressure, kPa = 101
Property: Mass density, kg/m3 (Liquid); method: Pycnometric method
Mole fraction of cyclohexylamine	Mass density, kg/m3	uncertainty
0	696	0.6
0.0757	710.9	0.6
0.1557	726.3	0.6
0.2401	742.3	0.6
0.3296	759	0.6
0.4244	776.2	0.6
0.5252	793.6	0.6
0.6324	811.1	0.6
0.7468	828.6	0.6
0.8691	845.8	0.6
1	862.3	0.6

System: cyclohexylamine + 2-butoxyethan-1-ol; phases: Liquid
Fixed: Temperature, K = 298.15
Fixed: Pressure, kPa = 101
Property: Viscosity, Pa*s (Liquid); method: Capillary tube (Ostwald; Ubbelohde) method
Mole fraction of cyclohexylamine	Viscosity, Pa*s	uncertainty
0	0.002782	2.04e-05
0.1169	0.0028722	2.1e-05
0.2295	0.0030062	2.19e-05
0.338	0.0030592	2.23e-05
0.4427	0.0030686	2.24e-05
0.5437	0.0030115	2.2e-05
0.6412	0.0028725	2.1e-05
0.7355	0.0026972	1.98e-05
0.8266	0.0024466	1.81e-05
0.9147	0.0020897	1.57e-05
1	0.001753	1.33e-05

System: cyclohexylamine + 2-butoxyethan-1-ol; phases: Liquid
Fixed: Temperature, K = 298.15
Fixed: Pressure, kPa = 101
Property: Speed of sound, m/s (Liquid); method: Sing-around technique in a fixed-path interferometer
Mole fraction of cyclohexylamine	Speed of sound, m/s	uncertainty
0	1305.6	0.8
0.1169	1302.4	0.8
0.2295	1303.2	0.8
0.338	1306	0.8
0.4427	1311.6	0.8
0.5437	1320.2	0.8
0.6412	1333	0.8
0.7355	1348.2	0.8
0.8266	1366.8	0.8
0.9147	1390	0.8
1	1416.4	0.8

System: cyclohexylamine + 2-butoxyethan-1-ol; phases: Liquid
Fixed: Temperature, K = 298.15
Fixed: Pressure, kPa = 101
Property: Mass density, kg/m3 (Liquid); method: Pycnometric method
Mole fraction of cyclohexylamine	Mass density, kg/m3	uncertainty
0	902	0.6
0.1169	898.8	0.6
0.2295	895.5	0.6
0.338	892.1	0.6
0.4427	888.3	0.6
0.5437	884.6	0.6
0.6412	880.6	0.6
0.7355	876.2	0.6
0.8266	871.8	0.6
0.9147	867	0.6
1	862.3	0.6

System: cyclohexanone + butyl ethanoate; phases: Liquid
Fixed: Temperature, K = 298.15
Fixed: Pressure, kPa = 101
Property: Viscosity, Pa*s (Liquid); method: Capillary tube (Ostwald; Ubbelohde) method
Mole fraction of cyclohexanone	Viscosity, Pa*s	uncertainty
0	0.000668	6e-06
0.1162	0.000689	6e-06
0.2283	0.000732	6e-06
0.3365	0.000788	7e-06
0.441	0.000871	7e-06
0.542	0.000976	8e-06
0.6397	0.001109	9e-06
0.7341	0.001281	1e-05
0.8256	0.001478	1.1e-05
0.9142	0.001731	1.3e-05
1	0.00202	1.5e-05

System: cyclohexanone + butyl ethanoate; phases: Liquid
Fixed: Temperature, K = 298.15
Fixed: Pressure, kPa = 101
Property: Speed of sound, m/s (Liquid); method: Sing-around technique in a fixed-path interferometer
Mole fraction of cyclohexanone	Speed of sound, m/s	uncertainty
0	1176	0.7
0.1162	1173.2	0.7
0.2283	1179.3	0.7
0.3365	1193.1	0.7
0.441	1212.3	0.7
0.542	1235.5	0.7
0.6397	1262.8	0.8
0.7341	1293.2	0.8
0.8256	1330.1	0.8
0.9142	1368.2	0.8
1	1412	0.8

System: cyclohexanone + butyl ethanoate; phases: Liquid
Fixed: Temperature, K = 298.15
Fixed: Pressure, kPa = 101
Property: Mass density, kg/m3 (Liquid); method: Pycnometric method
Mole fraction of cyclohexanone	Mass density, kg/m3	uncertainty
0	874.4	0.6
0.1162	882.8	0.6
0.2283	890.7	0.6
0.3365	898.6	0.6
0.441	905.9	0.6
0.542	913.1	0.6
0.6397	919.9	0.6
0.7341	926.4	0.6
0.8256	932.2	0.6
0.9142	937.3	0.6
1	941.6	0.6

System: butanone + cyclohexanone; phases: Liquid
Fixed: Temperature, K = 298.15
Fixed: Pressure, kPa = 101
Property: Viscosity, Pa*s (Liquid); method: Capillary tube (Ostwald; Ubbelohde) method
Mole fraction of cyclohexanone	Viscosity, Pa*s	uncertainty
0	0.0004	4e-06
0.0755	0.00045	4e-06
0.1552	0.000523	5e-06
0.2395	0.000576	5e-06
0.3288	0.000655	6e-06
0.4235	0.000739	6e-06
0.5243	0.000868	7e-06
0.6316	0.00103	8e-06
0.7461	0.001258	1e-05
0.8686	0.001587	1.2e-05
1	0.00202	1.5e-05

System: butanone + cyclohexanone; phases: Liquid
Fixed: Temperature, K = 298.15
Fixed: Pressure, kPa = 101
Property: Speed of sound, m/s (Liquid); method: Sing-around technique in a fixed-path interferometer
Mole fraction of cyclohexanone	Speed of sound, m/s	uncertainty
0	1195	0.7
0.0755	1193.2	0.7
0.1552	1193.2	0.7
0.2395	1198.3	0.7
0.3288	1205.6	0.7
0.4235	1219.1	0.7
0.5243	1239.5	0.7
0.6316	1267.5	0.8
0.7461	1305.1	0.8
0.8686	1352.7	0.8
1	1412	0.8

System: butanone + cyclohexanone; phases: Liquid
Fixed: Temperature, K = 298.15
Fixed: Pressure, kPa = 101
Property: Mass density, kg/m3 (Liquid); method: Pycnometric method
Mole fraction of cyclohexanone	Mass density, kg/m3	uncertainty
0	798.1	0.6
0.0755	813.5	0.6
0.1552	829.4	0.6
0.2395	844.3	0.6
0.3288	859.9	0.6
0.4235	874.6	0.6
0.5243	889.6	0.6
0.6316	903.8	0.6
0.7461	917.2	0.6
0.8686	930.6	0.6
1	941.6	0.6

System: cyclohexanone + 1-butanamine; phases: Liquid
Fixed: Temperature, K = 298.15
Fixed: Pressure, kPa = 101
Property: Viscosity, Pa*s (Liquid); method: Capillary tube (Ostwald; Ubbelohde) method
Mole fraction of cyclohexanone	Viscosity, Pa*s	uncertainty
0	0.000493	5e-06
0.0765	0.000623	5e-06
0.157	0.000754	6e-06
0.2421	0.000903	7e-06
0.3319	0.00106	8e-06
0.427	0.001223	1e-05
0.5278	0.001392	1.1e-05
0.6349	0.001563	1.2e-05
0.7488	0.001725	1.3e-05
0.8702	0.00188	1.4e-05
1	0.00202	1.5e-05

System: cyclohexanone + 1-butanamine; phases: Liquid
Fixed: Temperature, K = 298.15
Fixed: Pressure, kPa = 101
Property: Speed of sound, m/s (Liquid); method: Sing-around technique in a fixed-path interferometer
Mole fraction of cyclohexanone	Speed of sound, m/s	uncertainty
0	1251.6	0.7
0.0765	1256.4	0.7
0.157	1264.5	0.7
0.2421	1271.7	0.8
0.3319	1281	0.8
0.427	1291.3	0.8
0.5278	1304.4	0.8
0.6349	1319.5	0.8
0.7488	1341.1	0.8
0.8702	1369.9	0.8
1	1412	0.8

System: cyclohexanone + 1-butanamine; phases: Liquid
Fixed: Temperature, K = 298.15
Fixed: Pressure, kPa = 101
Property: Mass density, kg/m3 (Liquid); method: Pycnometric method
Mole fraction of cyclohexanone	Mass density, kg/m3	uncertainty
0	731.9	0.6
0.0765	759.9	0.6
0.157	786.8	0.6
0.2421	813.6	0.6
0.3319	839.2	0.6
0.427	863.4	0.6
0.5278	885.2	0.6
0.6349	904.1	0.6
0.7488	919.9	0.6
0.8702	932.4	0.6
1	941.6	0.6

System: 2-methyl-2-propanamine + cyclohexanone; phases: Liquid
Fixed: Temperature, K = 298.15
Fixed: Pressure, kPa = 101
Property: Viscosity, Pa*s (Liquid); method: Capillary tube (Ostwald; Ubbelohde) method
Mole fraction of cyclohexanone	Viscosity, Pa*s	uncertainty
0	0.000439	4e-06
0.0765	0.000525	5e-06
0.157	0.000607	5e-06
0.2421	0.000702	6e-06
0.3319	0.000787	7e-06
0.427	0.000893	7e-06
0.5278	0.001021	8e-06
0.6349	0.001172	9e-06
0.7488	0.001373	1.1e-05
0.8702	0.001644	1.3e-05
1	0.00202	1.5e-05

System: 2-methyl-2-propanamine + cyclohexanone; phases: Liquid
Fixed: Temperature, K = 298.15
Fixed: Pressure, kPa = 101
Property: Speed of sound, m/s (Liquid); method: Sing-around technique in a fixed-path interferometer
Mole fraction of cyclohexanone	Speed of sound, m/s	uncertainty
0	1260	0.7
0.0765	1259.5	0.7
0.157	1256.6	0.7
0.2421	1257.4	0.7
0.3319	1262.6	0.7
0.427	1270.6	0.8
0.5278	1284.8	0.8
0.6349	1303.9	0.8
0.7488	1330.6	0.8
0.8702	1363.2	0.8
1	1412	0.8

System: 2-methyl-2-propanamine + cyclohexanone; phases: Liquid
Fixed: Temperature, K = 298.15
Fixed: Pressure, kPa = 101
Property: Mass density, kg/m3 (Liquid); method: Pycnometric method
Mole fraction of cyclohexanone	Mass density, kg/m3	uncertainty
0	696	0.6
0.0765	717.6	0.6
0.157	740.2	0.6
0.2421	764	0.6
0.3319	787.6	0.6
0.427	812.8	0.6
0.5278	838.4	0.6
0.6349	864.2	0.6
0.7488	890.6	0.6
0.8702	916.7	0.6
1	941.6	0.6

System: cyclohexanone + 2-butoxyethan-1-ol; phases: Liquid
Fixed: Temperature, K = 298.15
Fixed: Pressure, kPa = 101
Property: Viscosity, Pa*s (Liquid); method: Capillary tube (Ostwald; Ubbelohde) method
Mole fraction of cyclohexanone	Viscosity, Pa*s	uncertainty
0	0.002782	2e-05
0.118	0.002642	1.9e-05
0.2314	0.002518	1.9e-05
0.3404	0.002402	1.8e-05
0.4453	0.002304	1.7e-05
0.5463	0.002217	1.7e-05
0.6436	0.002146	1.6e-05
0.7375	0.002087	1.6e-05
0.8281	0.002048	1.5e-05
0.9155	0.002024	1.5e-05
1	0.00202	1.5e-05

System: cyclohexanone + 2-butoxyethan-1-ol; phases: Liquid
Fixed: Temperature, K = 298.15
Fixed: Pressure, kPa = 101
Property: Speed of sound, m/s (Liquid); method: Sing-around technique in a fixed-path interferometer
Mole fraction of cyclohexanone	Speed of sound, m/s	uncertainty
0	1305.6	0.8
0.118	1291.6	0.8
0.2314	1288.5	0.8
0.3404	1292.4	0.8
0.4453	1300.9	0.8
0.5463	1315.1	0.8
0.6436	1332.8	0.8
0.7375	1350.2	0.8
0.8281	1371.7	0.8
0.9155	1392.7	0.8
1	1412	0.8

System: cyclohexanone + 2-butoxyethan-1-ol; phases: Liquid
Fixed: Temperature, K = 298.15
Fixed: Pressure, kPa = 101
Property: Mass density, kg/m3 (Liquid); method: Pycnometric method
Mole fraction of cyclohexanone	Mass density, kg/m3	uncertainty
0	902	0.6
0.118	906.3	0.6
0.2314	911.1	0.6
0.3404	915.3	0.6
0.4453	919.9	0.6
0.5463	924.2	0.6
0.6436	928	0.6
0.7375	932.1	0.6
0.8281	935.6	0.6
0.9155	938.7	0.6
1	941.6	0.6
