Measured thermophysical data. Viscosity Measurements on Ionic Liquids: A Cautionary Tale
Source: Int. J. Thermophys., 2014, 10.1007/s10765-013-1487-y
Compound 1: 1-hexyl-3-methylimidazolium bis[(trifluoromethyl)sulfonyl]imide, C12H19F6N3O4S2, InChI=1S/C10H19N2.C2F6NO4S2/c1-3-4-5-6-7-12-9-8-11(2)10-12;3-1(4,5)14(10,11)9-15(12,13)2(6,7)8/h8-10H,3-7H2,1-2H3;/q+1;-1, purity 99%
Compound 2: 1-ethyl-3-methylpyridinium ethylsulfate, C10H17NO4S, InChI=1S/C8H12N.C2H6O4S/c1-3-9-6-4-5-8(2)7-9;1-2-6-7(3,4)5/h4-7H,3H2,1-2H3;2H2,1H3,(H,3,4,5)/q+1;/p-1
Compound 3: 1-ethyl-3-methylimidazolium ethyl sulfate, C8H16N2O4S, InChI=1S/C6H11N2.C2H6O4S/c1-3-8-5-4-7(2)6-8;1-2-6-7(3,4)5/h4-6H,3H2,1-2H3;2H2,1H3,(H,3,4,5)/q+1;/p-1

System: 1-hexyl-3-methylimidazolium bis[(trifluoromethyl)sulfonyl]imide; phases: Liquid
Fixed: Pressure, kPa = 101.325
Property: Viscosity, Pa*s (Liquid); method: Capillary tube (Ostwald; Ubbelohde) method
Temperature, K	Viscosity, Pa*s	uncertainty
293.25	0.08998	0.00264
298.19	0.07111	0.00207

System: 1-ethyl-3-methylpyridinium ethylsulfate; phases: Liquid
Fixed: Pressure, kPa = 101.325
Property: Viscosity, Pa*s (Liquid); method: Capillary tube (Ostwald; Ubbelohde) method
Temperature, K	Viscosity, Pa*s	uncertainty
293.16	0.18268	0.0056
298.13	0.13535	0.00398

System: 1-ethyl-3-methylimidazolium ethyl sulfate; phases: Liquid
Fixed: Pressure, kPa = 101.325
Property: Mass density, kg/m3 (Liquid); method: Vibrating tube method
Temperature, K	Mass density, kg/m3	uncertainty
298.15	1238.14	0.55
300.65	1236.44	0.55
303.15	1234.75	0.55
305.64	1233.06	0.55
308.15	1231.37	0.55
310.64	1229.69	0.55
313.15	1228	0.54
318.15	1224.64	0.54
320.65	1222.96	0.54
320.65	1222.96	0.54
318.15	1224.63	0.54
315.66	1226.31	0.54
313.15	1228	0.54
310.66	1229.68	0.55
308.16	1231.37	0.55
305.66	1233.06	0.55
303.15	1234.75	0.55
300.66	1236.45	0.55
298.16	1238.15	0.55
295.65	1239.85	0.56
293.16	1241.54	0.56
290.65	1243.24	0.56
290.66	1243.24	0.56
293.15	1241.55	0.56
295.65	1239.85	0.56
298.15	1238.15	0.55
300.65	1236.46	0.55
303.15	1234.76	0.55
305.65	1233.06	0.55
308.14	1231.37	0.55
310.64	1229.68	0.55
313.15	1228	0.54
315.64	1226.32	0.54
318.15	1224.64	0.54
320.65	1222.96	0.54

System: 1-ethyl-3-methylimidazolium ethyl sulfate; phases: Liquid
Fixed: Pressure, kPa = 101.325
Property: Viscosity, Pa*s (Liquid); method: Vibrating wire viscometry
Temperature, K	Viscosity, Pa*s	uncertainty
293.14	0.1257	0.0033
298.19	0.09719	0.00244
303.15	0.0768	0.00181
308.21	0.06142	0.00139
313.14	0.05005	0.00111
318.13	0.04142	0.00093

System: 1-ethyl-3-methylimidazolium ethyl sulfate; phases: Liquid
Fixed: Pressure, kPa = 101.325
Property: Viscosity, Pa*s (Liquid); method: Capillary tube (Ostwald; Ubbelohde) method
Temperature, K	Viscosity, Pa*s	uncertainty
293.23	0.12862	0.00347
298.18	0.09937	0.0026
