Measured thermophysical data. Interpretation of Association Behavior and Molecular Interactions in Binary Mixtures from Thermoacoustics and Molecular Compression Data
Source: Int. J. Thermophys., 2016, 10.1007/s10765-016-2096-3
Compound 1: acetonitrile, C2H3N, InChI=1S/C2H3N/c1-2-3/h1H3
Compound 2: formamide, CH3NO, InChI=1S/CH3NO/c2-1-3/h1H,(H2,2,3)
Compound 3: N-methylacetamide, C3H7NO, InChI=1S/C3H7NO/c1-3(5)4-2/h1-2H3,(H,4,5)
Compound 4: dimethylformamide, C3H7NO, InChI=1S/C3H7NO/c1-4(2)3-5/h3H,1-2H3
Compound 5: N,N-dimethylethanamide, C4H9NO, InChI=1S/C4H9NO/c1-4(6)5(2)3/h1-3H3

System: acetonitrile; phases: Liquid
Fixed: Pressure, kPa = 101.325
Property: Mass density, kg/m3 (Liquid); method: Pycnometric method
Temperature, K	Mass density, kg/m3	uncertainty
293.15	786.5	12.8
298.15	781.1	12.8
303.15	773.3	12.8
308.15	766.5	12.8
313.15	760.5	12.8

System: acetonitrile; phases: Liquid
Fixed: Pressure, kPa = 101.325
Property: Speed of sound, m/s (Liquid); method: Linear variable-path acoustic interferometer
Temperature, K	Speed of sound, m/s	uncertainty
293.15	1305.5	78.3
298.15	1290.1	77.4
303.15	1263.4	75.8
308.15	1245.1	74.7
313.15	1230.5	73.8

System: formamide; phases: Liquid
Fixed: Pressure, kPa = 101.325
Property: Mass density, kg/m3 (Liquid); method: Pycnometric method
Temperature, K	Mass density, kg/m3	uncertainty
293.15	1132	12.8
298.15	1129	12.8
303.15	1125	12.8
308.15	1121	12.8
313.15	1111.7	12.9

System: formamide; phases: Liquid
Fixed: Pressure, kPa = 101.325
Property: Speed of sound, m/s (Liquid); method: Linear variable-path acoustic interferometer
Temperature, K	Speed of sound, m/s	uncertainty
293.15	1625.8	97.6
298.15	1601	96.1
303.15	1585.2	95.1
308.15	1577.2	94.6
313.15	1565.1	93.9

System: N-methylacetamide; phases: Liquid
Fixed: Pressure, kPa = 101.325
Property: Mass density, kg/m3 (Liquid); method: Pycnometric method
Temperature, K	Mass density, kg/m3	uncertainty
293.15	956.3	12.8
298.15	951.2	12.8
303.15	950.2	12.8
308.15	946.8	12.8
313.15	940.5	12.8

System: N-methylacetamide; phases: Liquid
Fixed: Pressure, kPa = 101.325
Property: Speed of sound, m/s (Liquid); method: Linear variable-path acoustic interferometer
Temperature, K	Speed of sound, m/s	uncertainty
293.15	1425.8	85.6
298.15	1401	84.1
303.15	1373.8	82.4
308.15	1355.8	81.4
313.15	1370.5	82.2

System: dimethylformamide; phases: Liquid
Fixed: Pressure, kPa = 101.325
Property: Mass density, kg/m3 (Liquid); method: Pycnometric method
Temperature, K	Mass density, kg/m3	uncertainty
293.15	955.1	12.8
298.15	950.1	12.8
303.15	941.9	12.8
308.15	935.7	12.8
313.15	932.5	12.8

System: dimethylformamide; phases: Liquid
Fixed: Pressure, kPa = 101.325
Property: Speed of sound, m/s (Liquid); method: Linear variable-path acoustic interferometer
Temperature, K	Speed of sound, m/s	uncertainty
293.15	1476.8	88.6
298.15	1465.2	87.9
303.15	1454.1	87.3
308.15	1428.2	85.7
313.15	1411.2	84.7

System: N,N-dimethylethanamide; phases: Liquid
Fixed: Pressure, kPa = 101.325
Property: Mass density, kg/m3 (Liquid); method: Pycnometric method
Temperature, K	Mass density, kg/m3	uncertainty
293.15	962.3	12.9
298.15	950.2	12.9
303.15	936	12.9
308.15	926.8	12.8
313.15	922.1	12.8

System: N,N-dimethylethanamide; phases: Liquid
Fixed: Pressure, kPa = 101.325
Property: Speed of sound, m/s (Liquid); method: Linear variable-path acoustic interferometer
Temperature, K	Speed of sound, m/s	uncertainty
293.15	1470.5	88.2
298.15	1451.3	87.1
303.15	1435.1	86.1
308.15	1421.5	85.3
313.15	1409	84.6
