Measured thermophysical data. Thermal Conductivity of Carbon Dioxide Methane Mixtures at Temperatures Between 300 and 425K and at Pressures up to 12 MPa
Source: Int. J. Thermophys., 2005, 10.1007/s10765-005-5566-6
Compound 1: methane, CH4, InChI=1S/CH4/h1H4, purity 99.95%
Compound 2: carbon dioxide, CO2, InChI=1S/CO2/c2-1-3, purity 99.98%

System: carbon dioxide; phases: Gas
Property: Thermal conductivity, W/m/K (Gas); method: Hot wire method
Temperature, K	Pressure, kPa	Thermal conductivity, W/m/K	uncertainty
298.893	6100	0.03312	0.00059
299.016	5760	0.02896	0.00053
299.192	5400	0.02633	0.00048
299.309	5035	0.02441	0.00045
299.498	4555	0.02268	0.00042
299.603	3980	0.02109	0.00039
299.728	3285	0.01968	0.00037
299.847	2555	0.01861	0.00035
300.064	1702	0.01777	0.00034
300.372	714	0.01712	0.00033
302.672	6635	0.037	0.00066
302.769	6400	0.03309	0.00059
302.795	6025	0.02905	0.00053
302.863	5675	0.02694	0.00049
302.92	5290	0.02471	0.00045
302.973	4870	0.02339	0.00043
303.08	4340	0.02178	0.0004
303.218	3765	0.02053	0.00038
303.512	3160	0.01961	0.00037
303.807	2415	0.01872	0.00035
303.989	1612	0.01795	0.00034
304.214	724	0.01741	0.00033
324.87	7960	0.03214	0.00058
324.896	7750	0.03118	0.00056
324.917	7440	0.02954	0.00054
324.95	5960	0.02501	0.00046
325.01	6900	0.02771	0.0005
325.04	6760	0.02716	0.0005
325.102	5575	0.02434	0.00045
325.115	6360	0.02611	0.00048
325.279	5060	0.02323	0.00043
325.416	4605	0.02254	0.00042
325.478	4040	0.02182	0.0004
325.644	3500	0.02126	0.0004
325.807	2880	0.02052	0.00038
325.927	2218	0.02003	0.00037
326.031	1514	0.01958	0.00037
326.174	684	0.01921	0.00036
326.256	497	0.0191	0.00036
350.827	9985	0.03324	0.0006
350.887	8840	0.03029	0.00055
350.956	7540	0.02768	0.0005
351.116	6040	0.02551	0.00047
351.436	4275	0.02351	0.00043
351.818	2214	0.02197	0.0004
351.867	1820	0.02181	0.0004
351.909	1420	0.02153	0.0004
352.1	994	0.02141	0.00039
352.228	572	0.02136	0.00039
375.684	14930	0.04175	0.00075
375.711	13880	0.03888	0.0007
375.749	12560	0.03615	0.00065
375.8	11100	0.03322	0.0006
375.854	9640	0.03079	0.00056
375.907	8060	0.02887	0.00052
376.012	6260	0.02673	0.00049
376.109	4240	0.02504	0.00046
376.28	2004	0.02377	0.00043
376.515	1015	0.02346	0.00043
400.852	15010	0.03843	0.00069
400.93	13550	0.03623	0.00066
400.982	11950	0.03389	0.00061
401.029	10340	0.03194	0.00058
401.151	8495	0.03004	0.00054
401.3	6660	0.0285	0.00052
401.418	4600	0.02712	0.00049
401.602	2382	0.02597	0.00047
401.659	1690	0.02584	0.00047
401.735	975	0.02566	0.00046
427.125	12000	0.03429	0.00062
427.231	9898	0.0325	0.00059
427.376	8240	0.03127	0.00056
427.513	6160	0.02966	0.00053
427.665	3970	0.02879	0.00052
427.7	3020	0.02833	0.00051
427.952	2050	0.02812	0.0005
428.047	1040	0.02797	0.0005

System: methane + carbon dioxide; phases: Gas
Property: Thermal conductivity, W/m/K (Gas); method: Hot wire method
Mole fraction of methane	Temperature, K	Pressure, kPa	Thermal conductivity, W/m/K	uncertainty
0.2493	300	724	0.02096	0.00039
0.2493	300	1288	0.02125	0.00039
0.2493	300	1835	0.02161	0.0004
0.2493	300	2335	0.02197	0.00041
0.2493	300	2820	0.02245	0.00041
0.2493	300	3275	0.02287	0.00042
0.2493	300	3730	0.02338	0.00043
0.2493	300	4160	0.02399	0.00044
0.2493	300	4550	0.02452	0.00045
0.2493	300	4920	0.0252	0.00046
0.2493	325	793	0.0234	0.00043
0.2493	325	1420	0.02367	0.00043
0.2493	325	2020	0.02398	0.00044
0.2493	325	2600	0.02439	0.00044
0.2493	325	3160	0.02478	0.00045
0.2493	325	3685	0.02519	0.00046
0.2493	325	4210	0.02561	0.00047
0.2493	325	4690	0.02615	0.00048
0.2493	325	5170	0.02675	0.00049
0.2493	325	5625	0.02733	0.0005
0.2493	350	860	0.026	0.00047
0.2493	350	1310	0.02615	0.00047
0.2493	350	1750	0.02631	0.00047
0.2493	350	2180	0.02656	0.00048
0.2493	350	2610	0.02669	0.00048
0.2493	350	3020	0.02694	0.00049
0.2493	350	3440	0.02718	0.00049
0.2493	350	3840	0.02747	0.0005
0.2493	350	4220	0.02766	0.0005
0.2493	350	4600	0.02799	0.0005
0.2493	375	919	0.02872	0.00051
0.2493	375	1460	0.02883	0.00051
0.2493	375	1986	0.02895	0.00052
0.2493	375	2510	0.02913	0.00052
0.2493	375	3015	0.02945	0.00053
0.2493	375	3510	0.0297	0.00053
0.2493	375	4005	0.02993	0.00054
0.2493	375	4500	0.0302	0.00054
0.2493	375	4975	0.03051	0.00055
0.2493	375	5440	0.03075	0.00055
0.2493	400	983	0.03152	0.00056
0.2493	400	1410	0.0316	0.00056
0.2493	400	1820	0.03172	0.00056
0.2493	400	2230	0.03183	0.00056
0.2493	400	2635	0.03187	0.00056
0.2493	400	3040	0.03201	0.00057
0.2493	400	3435	0.03228	0.00057
0.2493	400	3850	0.03241	0.00057
0.2493	400	4240	0.03258	0.00058
0.2493	400	4615	0.03271	0.00058
0.2493	425	1048	0.03418	0.0006
0.2493	425	1530	0.03411	0.0006
0.2493	425	1938	0.03436	0.0006
0.2493	425	2390	0.03434	0.0006
0.2493	425	2810	0.03448	0.00061
0.2493	425	3260	0.03452	0.00061
0.2493	425	3690	0.03472	0.00061
0.2493	425	4120	0.0349	0.00062
0.2493	425	4540	0.03506	0.00062
0.2493	425	4960	0.0353	0.00062
0.4994	300	727	0.02533	0.00046
0.4994	300	1241	0.02556	0.00046
0.4994	300	1748	0.02584	0.00047
0.4994	300	2212	0.02613	0.00047
0.4994	300	2700	0.02637	0.00048
0.4994	300	3118	0.02681	0.00048
0.4994	300	3550	0.02726	0.00049
0.4994	300	4660	0.02839	0.00051
0.4994	300	5670	0.02959	0.00053
0.4994	300	6570	0.03101	0.00056
0.4994	325	800	0.02831	0.0005
0.4994	325	1350	0.02846	0.00051
0.4994	325	1896	0.02871	0.00051
0.4994	325	2434	0.02901	0.00052
0.4994	325	2970	0.02933	0.00052
0.4994	325	3440	0.02963	0.00053
0.4994	325	3920	0.02999	0.00054
0.4994	325	5200	0.03111	0.00056
0.4994	325	6380	0.03222	0.00058
0.4994	325	7500	0.03379	0.0006
0.4994	350	865	0.03135	0.00055
0.4994	350	1464	0.03154	0.00056
0.4994	350	2054	0.03177	0.00056
0.4994	350	2660	0.03206	0.00057
0.4994	350	3190	0.03224	0.00057
0.4994	350	3760	0.03258	0.00058
0.4994	350	4324	0.03282	0.00058
0.4994	350	5145	0.03347	0.00059
0.4994	350	5920	0.03401	0.0006
0.4994	350	6670	0.03477	0.00062
0.4994	375	919	0.03475	0.00061
0.4994	375	1578	0.0348	0.00061
0.4994	375	2220	0.03492	0.00061
0.4994	375	2840	0.0352	0.00062
0.4994	375	3480	0.03545	0.00062
0.4994	375	4100	0.03561	0.00063
0.4994	375	4715	0.03598	0.00063
0.4994	375	5855	0.03682	0.00065
0.4994	375	6930	0.03739	0.00066
0.4994	375	8000	0.03823	0.00068
0.4994	400	986	0.03807	0.00066
0.4994	400	1690	0.03812	0.00066
0.4994	400	2378	0.03826	0.00067
0.4994	400	3061	0.03844	0.00067
0.4994	400	3740	0.03866	0.00068
0.4994	400	4390	0.03887	0.00068
0.4994	400	5060	0.03918	0.00069
0.4994	400	5667	0.03961	0.00069
0.4994	400	6180	0.0398	0.0007
0.4994	400	6710	0.04014	0.00071
0.4994	425	1050	0.04164	0.00072
0.4994	425	1799	0.04146	0.00072
0.4994	425	2554	0.04156	0.00072
0.4994	425	3260	0.04176	0.00072
0.4994	425	4000	0.04192	0.00073
0.4994	425	4730	0.04207	0.00073
0.4994	425	5460	0.04245	0.00074
0.4994	425	6410	0.04284	0.00075
0.4994	425	7380	0.04335	0.00076
0.4994	425	8310	0.04385	0.00077
0.7496	300	730	0.03005	0.00053
0.7496	300	1240	0.03027	0.00054
0.7496	300	1770	0.03051	0.00054
0.7496	300	2245	0.03082	0.00055
0.7496	300	2740	0.03109	0.00055
0.7496	300	3220	0.03153	0.00056
0.7496	300	3680	0.03188	0.00057
0.7496	300	4160	0.03236	0.00057
0.7496	300	4560	0.03271	0.00058
0.7496	300	5000	0.03324	0.00059
0.7496	325	797	0.03345	0.00059
0.7496	325	1358	0.03366	0.00059
0.7496	325	1920	0.0339	0.0006
0.7496	325	2465	0.0342	0.0006
0.7496	325	3020	0.0345	0.00061
0.7496	325	3520	0.03477	0.00061
0.7496	325	4040	0.03529	0.00062
0.7496	325	4555	0.03559	0.00063
0.7496	325	5040	0.03603	0.00064
0.7496	325	5560	0.03638	0.00064
0.7496	350	862	0.03707	0.00064
0.7496	350	1605	0.03738	0.00065
0.7496	350	2340	0.03766	0.00066
0.7496	350	3035	0.03796	0.00066
0.7496	350	3740	0.03813	0.00067
0.7496	350	4410	0.03855	0.00068
0.7496	350	5140	0.039	0.00068
0.7496	350	5860	0.03958	0.00069
0.7496	350	6410	0.03989	0.0007
0.7496	350	7080	0.04053	0.00071
0.7496	375	930	0.04098	0.00071
0.7496	375	1528	0.04104	0.00071
0.7496	375	2135	0.04117	0.00071
0.7496	375	2740	0.04129	0.00072
0.7496	375	3310	0.04145	0.00072
0.7496	375	3915	0.04181	0.00073
0.7496	375	4490	0.04204	0.00073
0.7496	375	6910	0.04355	0.00076
0.7496	375	9330	0.04538	0.0008
0.7496	375	11600	0.04722	0.00083
0.7496	400	993	0.04503	0.00077
0.7496	400	1700	0.04501	0.00077
0.7496	400	2393	0.04519	0.00078
0.7496	400	3115	0.04526	0.00078
0.7496	400	3770	0.04535	0.00078
0.7496	400	4460	0.04578	0.00079
0.7496	400	5140	0.04598	0.0008
0.7496	400	6670	0.04688	0.00082
0.7496	400	8110	0.04756	0.00083
0.7496	400	9545	0.04861	0.00085
0.7496	425	1050	0.04889	0.00083
0.7496	425	1810	0.04908	0.00084
0.7496	425	2558	0.04898	0.00084
0.7496	425	3300	0.04919	0.00084
0.7496	425	4050	0.04919	0.00085
0.7496	425	4800	0.0498	0.00086
0.7496	425	5520	0.05001	0.00086
0.7496	425	7670	0.05089	0.00088
0.7496	425	9820	0.05188	0.00091
0.7496	425	11970	0.05348	0.00094
