Measured thermophysical data. Electrolytic Conductivity of Four Imidazolium-Based Ionic Liquids
Source: Int. J. Thermophys., 2013, 10.1007/s10765-013-1491-2
Compound 1: 1-hexyl-3-methylimidazolium bis[(trifluoromethyl)sulfonyl]imide, C12H19F6N3O4S2, InChI=1S/C10H19N2.C2F6NO4S2/c1-3-4-5-6-7-12-9-8-11(2)10-12;3-1(4,5)14(10,11)9-15(12,13)2(6,7)8/h8-10H,3-7H2,1-2H3;/q+1;-1, purity 99%
Compound 2: 1-ethyl-3-methylimidazolium bis((trifluoromethyl)sulfonyl)imide, C8H11F6N3O4S2, InChI=1S/C6H11N2.C2F6NO4S2/c1-3-8-5-4-7(2)6-8;3-1(4,5)14(10,11)9-15(12,13)2(6,7)8/h4-6H,3H2,1-2H3;/q+1;-1, purity 99%
Compound 3: 1-ethyl-3-methylimidazolium ethyl sulfate, C8H16N2O4S, InChI=1S/C6H11N2.C2H6O4S/c1-3-8-5-4-7(2)6-8;1-2-6-7(3,4)5/h4-6H,3H2,1-2H3;2H2,1H3,(H,3,4,5)/q+1;/p-1, purity 99%
Compound 4: 1-ethyl-3-methylimidazolium trifluoromethanesulfonate, C7H11F3N2O3S, InChI=1S/C6H11N2.CHF3O3S/c1-3-8-5-4-7(2)6-8;2-1(3,4)8(5,6)7/h4-6H,3H2,1-2H3;(H,5,6,7)/q+1;/p-1, purity 99%

System: 1-hexyl-3-methylimidazolium bis[(trifluoromethyl)sulfonyl]imide; phases: Liquid
Fixed: Pressure, kPa = 101.325
Property: Electrical conductivity, S/m (Liquid); method: Alternating current cell with electrodes
Temperature, K	Electrical conductivity, S/m	uncertainty
288.27	0.1357	0.0055
293.13	0.1723	0.0069
298.1	0.2163	0.0087
303.18	0.2683	0.0108
308.13	0.3258	0.0131
313.08	0.3908	0.0157
323.11	0.5439	0.0218
333.01	0.7245	0.029
288.27	0.1359	0.0055

System: 1-ethyl-3-methylimidazolium bis((trifluoromethyl)sulfonyl)imide; phases: Liquid
Fixed: Pressure, kPa = 101.325
Property: Electrical conductivity, S/m (Liquid); method: Alternating current cell with electrodes
Temperature, K	Electrical conductivity, S/m	uncertainty
288.16	0.6439	0.0259
293.12	0.7681	0.0308
298.08	0.9053	0.0363
303.15	1.0587	0.0425
308.11	1.2205	0.0489
313.06	1.3938	0.0559
323.07	1.7729	0.071
333.11	2.1962	0.0879
288.16	0.645	0.0259

System: 1-ethyl-3-methylimidazolium ethyl sulfate; phases: Liquid
Fixed: Pressure, kPa = 101.325
Property: Electrical conductivity, S/m (Liquid); method: Alternating current cell with electrodes
Temperature, K	Electrical conductivity, S/m	uncertainty
288.16	0.2354	0.0095
293.12	0.3025	0.0122
298.08	0.3809	0.0153
303.15	0.4733	0.019
308.11	0.576	0.0231
313.07	0.6896	0.0277
323.08	0.9605	0.0385
333.11	1.2844	0.0515
288.15	0.2351	0.0095

System: 1-ethyl-3-methylimidazolium trifluoromethanesulfonate; phases: Liquid
Fixed: Pressure, kPa = 101.325
Property: Electrical conductivity, S/m (Liquid); method: Alternating current cell with electrodes
Temperature, K	Electrical conductivity, S/m	uncertainty
288.15	0.6232	0.0375
293.11	0.7468	0.0449
298.16	0.8858	0.0532
303.12	1.037	0.0623
308.08	1.2019	0.0722
313.16	1.3858	0.0832
323.06	1.7844	0.1072
333.1	2.2422	0.1346
288.16	0.6288	0.0378
