Measured thermophysical data. Surface Tension of Mixtures of Tetrahydrofuran or Tetrahydropyran with Isomeric Chlorobutanes
Source: Int. J. Thermophys., 2007, 10.1007/s10765-007-0169-z
Compound 1: tetrahydrofuran, C4H8O, InChI=1S/C4H8O/c1-2-4-5-3-1/h1-4H2
Compound 2: tetrahydropyran, C5H10O, InChI=1S/C5H10O/c1-2-4-6-5-3-1/h1-5H2
Compound 3: 1-chlorobutane, C4H9Cl, InChI=1S/C4H9Cl/c1-2-3-4-5/h2-4H2,1H3
Compound 4: 2-chlorobutane, C4H9Cl, InChI=1S/C4H9Cl/c1-3-4(2)5/h4H,3H2,1-2H3
Compound 5: 1-chloro-2-methylpropane, C4H9Cl, InChI=1S/C4H9Cl/c1-4(2)3-5/h4H,3H2,1-2H3
Compound 6: 2-chloro-2-methylpropane, C4H9Cl, InChI=1S/C4H9Cl/c1-4(2,3)5/h1-3H3

System: tetrahydrofuran; phases: Liquid
Property: Mass density, kg/m3 (Liquid); method: Pycnometric method
Temperature, K	Pressure, kPa	Mass density, kg/m3	uncertainty
298.15	101.325	881.95	0.81

System: tetrahydrofuran; phases: Liquid, Air at 1 atmosphere
Property: Surface tension liquid-gas, N/m (Liquid); method: Drop volume
Temperature, K	Surface tension liquid-gas, N/m	uncertainty
298.15	0.02704	0.00031
313.15	0.02505	0.00029

System: tetrahydropyran; phases: Liquid
Property: Mass density, kg/m3 (Liquid); method: Pycnometric method
Temperature, K	Pressure, kPa	Mass density, kg/m3	uncertainty
298.15	101.325	878.81	0.88

System: tetrahydropyran; phases: Liquid, Air at 1 atmosphere
Property: Surface tension liquid-gas, N/m (Liquid); method: Drop volume
Temperature, K	Surface tension liquid-gas, N/m	uncertainty
298.15	0.02729	0.00034
313.15	0.02539	0.00031

System: 1-chlorobutane; phases: Liquid
Property: Mass density, kg/m3 (Liquid); method: Pycnometric method
Temperature, K	Pressure, kPa	Mass density, kg/m3	uncertainty
298.15	101.325	880.69	0.88

System: 1-chlorobutane; phases: Liquid, Air at 1 atmosphere
Property: Surface tension liquid-gas, N/m (Liquid); method: Drop volume
Temperature, K	Surface tension liquid-gas, N/m	uncertainty
298.15	0.02329	0.00029
313.15	0.02158	0.00027

System: 2-chlorobutane; phases: Liquid
Property: Mass density, kg/m3 (Liquid); method: Pycnometric method
Temperature, K	Pressure, kPa	Mass density, kg/m3	uncertainty
298.15	101.325	867.37	0.86

System: 2-chlorobutane; phases: Liquid, Air at 1 atmosphere
Property: Surface tension liquid-gas, N/m (Liquid); method: Drop volume
Temperature, K	Surface tension liquid-gas, N/m	uncertainty
298.15	0.02193	0.00028
313.15	0.01933	0.00025

System: 1-chloro-2-methylpropane; phases: Liquid
Property: Mass density, kg/m3 (Liquid); method: Pycnometric method
Temperature, K	Pressure, kPa	Mass density, kg/m3	uncertainty
298.15	101.325	871.13	0.87

System: 1-chloro-2-methylpropane; phases: Liquid, Air at 1 atmosphere
Property: Surface tension liquid-gas, N/m (Liquid); method: Drop volume
Temperature, K	Surface tension liquid-gas, N/m	uncertainty
298.15	0.0218	0.00028
313.15	0.01918	0.00025

System: 2-chloro-2-methylpropane; phases: Liquid
Property: Mass density, kg/m3 (Liquid); method: Pycnometric method
Temperature, K	Pressure, kPa	Mass density, kg/m3	uncertainty
298.15	101.325	836.45	0.83

System: 2-chloro-2-methylpropane; phases: Liquid, Air at 1 atmosphere
Property: Surface tension liquid-gas, N/m (Liquid); method: Drop volume
Temperature, K	Surface tension liquid-gas, N/m	uncertainty
298.15	0.0189	0.00024
313.15	0.01698	0.00022

System: 1-chlorobutane + tetrahydrofuran; phases: Liquid, Air at 1 atmosphere
Property: Surface tension liquid-gas, N/m (Liquid); method: Drop volume
Temperature, K	Mole fraction of tetrahydrofuran	Surface tension liquid-gas, N/m	uncertainty
298.15	0.0526	0.02345	0.00029
298.15	0.1121	0.02362	0.00029
298.15	0.2436	0.02398	0.00029
298.15	0.3549	0.02429	0.00029
298.15	0.4671	0.02465	0.0003
298.15	0.5624	0.025	0.0003
298.15	0.6678	0.02541	0.0003
298.15	0.7575	0.02579	0.0003
298.15	0.84	0.02616	0.00031
298.15	0.9224	0.02658	0.00031
298.15	0.9739	0.02687	0.00031
313.15	0.0654	0.02178	0.00027
313.15	0.1272	0.02195	0.00027
313.15	0.25	0.02228	0.00027
313.15	0.3654	0.02259	0.00028
313.15	0.4658	0.02289	0.00028
313.15	0.5586	0.0232	0.00028
313.15	0.6569	0.02356	0.00028
313.15	0.7489	0.02392	0.00028
313.15	0.8401	0.0243	0.00029
313.15	0.9272	0.02469	0.00029
313.15	0.9663	0.02488	0.00029

System: 2-chlorobutane + tetrahydrofuran; phases: Liquid, Air at 1 atmosphere
Property: Surface tension liquid-gas, N/m (Liquid); method: Drop volume
Temperature, K	Mole fraction of tetrahydrofuran	Surface tension liquid-gas, N/m	uncertainty
298.15	0.0427	0.02196	0.00027
298.15	0.1259	0.02224	0.00028
298.15	0.2478	0.02271	0.00028
298.15	0.3589	0.02319	0.00028
298.15	0.4628	0.02368	0.00028
298.15	0.5654	0.02419	0.00029
298.15	0.6678	0.02474	0.00029
298.15	0.7513	0.02522	0.0003
298.15	0.84	0.02577	0.0003
298.15	0.9208	0.02635	0.00031
298.15	0.9701	0.02676	0.00031
313.15	0.0581	0.0197	0.00025
313.15	0.124	0.02012	0.00025
313.15	0.2442	0.02084	0.00026
313.15	0.3595	0.02147	0.00026
313.15	0.4761	0.02205	0.00027
313.15	0.573	0.02253	0.00027
313.15	0.6654	0.023	0.00028
313.15	0.7524	0.02345	0.00028
313.15	0.836	0.02394	0.00028
313.15	0.9209	0.02449	0.00029
313.15	0.9663	0.02481	0.00029

System: tetrahydrofuran + 1-chloro-2-methylpropane; phases: Liquid, Air at 1 atmosphere
Property: Surface tension liquid-gas, N/m (Liquid); method: Drop volume
Temperature, K	Mole fraction of tetrahydrofuran	Surface tension liquid-gas, N/m	uncertainty
298.15	0.0652	0.02225	0.00028
298.15	0.1201	0.02254	0.00028
298.15	0.2392	0.02306	0.00028
298.15	0.3613	0.02353	0.00029
298.15	0.4622	0.02394	0.00029
298.15	0.5682	0.02444	0.00029
298.15	0.6614	0.0249	0.00029
298.15	0.7586	0.02542	0.0003
298.15	0.8408	0.02589	0.0003
298.15	0.9257	0.02645	0.00031
298.15	0.9662	0.02675	0.00031
313.15	0.0619	0.01977	0.00025
313.15	0.1268	0.02025	0.00026
313.15	0.2531	0.021	0.00026
313.15	0.359	0.02153	0.00027
313.15	0.4722	0.02206	0.00027
313.15	0.5669	0.02251	0.00027
313.15	0.659	0.02297	0.00028
313.15	0.7539	0.02345	0.00028
313.15	0.8338	0.02388	0.00028
313.15	0.9198	0.02442	0.00029
313.15	0.9751	0.02483	0.00029

System: tetrahydrofuran + 2-chloro-2-methylpropane; phases: Liquid, Air at 1 atmosphere
Property: Surface tension liquid-gas, N/m (Liquid); method: Drop volume
Temperature, K	Mole fraction of tetrahydrofuran	Surface tension liquid-gas, N/m	uncertainty
298.15	0.0664	0.01932	0.00025
298.15	0.1332	0.01974	0.00025
298.15	0.2532	0.02051	0.00025
298.15	0.3652	0.02126	0.00026
298.15	0.4851	0.02211	0.00027
298.15	0.5768	0.02281	0.00027
298.15	0.6804	0.02366	0.00028
298.15	0.7747	0.02451	0.00029
298.15	0.8446	0.0252	0.00029
298.15	0.9372	0.02623	0.0003
298.15	0.9656	0.02658	0.00031
313.15	0.0427	0.01698	0.00022
313.15	0.1236	0.01722	0.00022
313.15	0.1853	0.01754	0.00023
313.15	0.2856	0.01822	0.00023
313.15	0.3852	0.01894	0.00024
313.15	0.5033	0.0199	0.00025
313.15	0.6055	0.02075	0.00025
313.15	0.6963	0.02155	0.00026
313.15	0.794	0.02248	0.00027
313.15	0.89	0.02353	0.00029
313.15	0.9446	0.02425	0.0003

System: 1-chlorobutane + tetrahydropyran; phases: Liquid, Air at 1 atmosphere
Property: Surface tension liquid-gas, N/m (Liquid); method: Drop volume
Temperature, K	Mole fraction of tetrahydropyran	Surface tension liquid-gas, N/m	uncertainty
298.15	0.0421	0.02343	0.00029
298.15	0.1082	0.02365	0.00029
298.15	0.2121	0.02402	0.0003
298.15	0.3174	0.02441	0.0003
298.15	0.4245	0.02482	0.00031
298.15	0.5222	0.02521	0.00031
298.15	0.6243	0.02563	0.00032
298.15	0.7209	0.02604	0.00032
298.15	0.8105	0.02643	0.00033
298.15	0.9103	0.02688	0.00033
298.15	0.9655	0.02713	0.00033
313.15	0.0319	0.02169	0.00027
313.15	0.1092	0.02195	0.00028
313.15	0.208	0.02229	0.00028
313.15	0.3137	0.02266	0.00028
313.15	0.4209	0.02304	0.00029
313.15	0.5149	0.02339	0.00029
313.15	0.6199	0.0238	0.0003
313.15	0.717	0.02419	0.0003
313.15	0.8126	0.02459	0.00031
313.15	0.9067	0.02499	0.00031
313.15	0.965	0.02524	0.00031

System: 2-chlorobutane + tetrahydropyran; phases: Liquid, Air at 1 atmosphere
Property: Surface tension liquid-gas, N/m (Liquid); method: Drop volume
Temperature, K	Mole fraction of tetrahydropyran	Surface tension liquid-gas, N/m	uncertainty
298.15	0.04	0.02205	0.00028
298.15	0.1057	0.02238	0.00028
298.15	0.2133	0.02288	0.00029
298.15	0.3195	0.02339	0.00029
298.15	0.4166	0.02388	0.0003
298.15	0.5188	0.02444	0.0003
298.15	0.6151	0.02499	0.00031
298.15	0.7111	0.02556	0.00032
298.15	0.8098	0.02615	0.00032
298.15	0.9438	0.02695	0.00033
298.15	0.9845	0.0272	0.00033
313.15	0.0355	0.01956	0.00025
313.15	0.1006	0.02001	0.00026
313.15	0.2177	0.02083	0.00027
313.15	0.3192	0.0215	0.00027
313.15	0.4243	0.02214	0.00028
313.15	0.5166	0.02266	0.00028
313.15	0.5931	0.02307	0.00029
313.15	0.7193	0.02376	0.0003
313.15	0.8156	0.02431	0.0003
313.15	0.9057	0.02485	0.00031
313.15	0.991	0.02534	0.00031

System: tetrahydropyran + 1-chloro-2-methylpropane; phases: Liquid, Air at 1 atmosphere
Property: Surface tension liquid-gas, N/m (Liquid); method: Drop volume
Temperature, K	Mole fraction of tetrahydropyran	Surface tension liquid-gas, N/m	uncertainty
298.15	0.0483	0.02218	0.00028
298.15	0.1067	0.02255	0.00028
298.15	0.2075	0.02309	0.00029
298.15	0.32	0.02363	0.00029
298.15	0.4148	0.02407	0.0003
298.15	0.519	0.02458	0.0003
298.15	0.6219	0.02511	0.00031
298.15	0.7194	0.02565	0.00032
298.15	0.8079	0.02615	0.00032
298.15	0.9077	0.02672	0.00033
298.15	0.9602	0.02704	0.00033
313.15	0.0377	0.01955	0.00025
313.15	0.1032	0.02011	0.00026
313.15	0.2167	0.02092	0.00027
313.15	0.3226	0.02157	0.00027
313.15	0.4213	0.02213	0.00028
313.15	0.5302	0.02274	0.00029
313.15	0.6241	0.02327	0.00029
313.15	0.7134	0.02378	0.0003
313.15	0.8148	0.02437	0.0003
313.15	0.9051	0.02489	0.00031
313.15	0.966	0.02522	0.00031

System: tetrahydropyran + 2-chloro-2-methylpropane; phases: Liquid, Air at 1 atmosphere
Property: Surface tension liquid-gas, N/m (Liquid); method: Drop volume
Temperature, K	Mole fraction of tetrahydropyran	Surface tension liquid-gas, N/m	uncertainty
298.15	0.0332	0.01918	0.00024
298.15	0.0955	0.01968	0.00025
298.15	0.2242	0.02068	0.00026
298.15	0.3219	0.02137	0.00027
298.15	0.4336	0.02217	0.00028
298.15	0.5374	0.02297	0.00029
298.15	0.6269	0.02369	0.00029
298.15	0.7173	0.02448	0.0003
298.15	0.8149	0.02541	0.00032
298.15	0.9089	0.02636	0.00032
298.15	0.9418	0.02671	0.00033
313.15	0.0734	0.01735	0.00023
313.15	0.1038	0.0175	0.00023
313.15	0.2093	0.01814	0.00024
313.15	0.3169	0.0189	0.00024
313.15	0.4363	0.0198	0.00025
313.15	0.5116	0.02041	0.00026
313.15	0.612	0.02124	0.00027
313.15	0.7058	0.02205	0.00028
313.15	0.8154	0.02308	0.00029
313.15	0.9006	0.02398	0.00031
313.15	0.9529	0.02466	0.00032
