Measured thermophysical data. Thermal Conductivity of n-Pentadecane (C15H32)
Source: Int. J. Thermophys., 2019, 10.1007/s10765-019-2537-x
Compound 1: toluene, C7H8, InChI=1S/C7H8/c1-7-5-3-2-4-6-7/h2-6H,1H3, purity 99.5%
Compound 2: pentadecane, C15H32, InChI=1S/C15H32/c1-3-5-7-9-11-13-15-14-12-10-8-6-4-2/h3-15H2,1-2H3, purity 99.79%

System: toluene; phases: Liquid
Property: Thermal conductivity, W/m/K (Liquid); method: THOTW
Temperature, K	Pressure, kPa	Thermal conductivity, W/m/K	uncertainty
317.52	20330	0.133	0.04
317.46	15330	0.1292	0.04
317.42	10550	0.1277	0.04
317.39	5130	0.1266	0.04
317.42	1050	0.1251	0.04
336.3	20300	0.1267	0.04
336.34	15140	0.1245	0.04
336.32	10150	0.1229	0.04
336.39	5020	0.1205	0.04
336.42	1030	0.1194	0.04
356.27	20040	0.1218	0.04
356.27	15170	0.1205	0.04
356.36	10440	0.1184	0.04
356.43	5170	0.1166	0.04
356.41	1160	0.1131	0.04
376.88	20030	0.1185	0.04
376.95	15270	0.1147	0.04
376.95	10160	0.1124	0.04
376.95	5200	0.1108	0.04
377.07	1080	0.1096	0.04
396.26	20010	0.1141	0.04
395.96	15140	0.1121	0.04
396.23	10180	0.1091	0.04
396.28	5150	0.1072	0.04
396.32	1030	0.1059	0.04
416.29	20250	0.1104	0.04
416.33	15150	0.1066	0.04
416.72	10280	0.1054	0.04
416.68	5290	0.1033	0.04
416.75	1040	0.1013	0.04
436.23	20100	0.1051	0.04
436.34	15130	0.1036	0.04
436.48	10230	0.1026	0.04
436.52	5170	0.0992	0.04
436.37	1020	0.0972	0.04
456.02	20030	0.1029	0.04
456.22	15290	0.1003	0.04
456.24	10330	0.099	0.04
456.04	5400	0.0956	0.04
456.26	1140	0.0928	0.04
476.38	20260	0.0994	0.04
476.75	15330	0.0965	0.04
476.35	10170	0.0941	0.04
476.73	5010	0.0914	0.04
476.61	1110	0.0901	0.04
496.03	20300	0.0962	0.04
496.27	15290	0.0945	0.04
496.31	10420	0.0928	0.04
496.49	5210	0.087	0.04
496.15	2850	0.0875	0.04
516.06	20190	0.094	0.04
516.2	15360	0.0916	0.04
516.21	10220	0.0906	0.04
516.4	5090	0.0862	0.04
536.56	20330	0.0921	0.04
536.39	15400	0.0897	0.04
536.3	10150	0.0873	0.04
556.59	20100	0.0927	0.04
556.53	15430	0.0908	0.04
556.68	10050	0.0869	0.04
576.72	20150	0.0885	0.04

System: pentadecane; phases: Liquid
Property: Thermal conductivity, W/m/K (Liquid); method: THOTW
Temperature, K	Pressure, kPa	Thermal conductivity, W/m/K	uncertainty
318.45	21080	0.1432	0.04
318.4	21080	0.1429	0.04
318.42	21080	0.1432	0.04
318.36	15320	0.1419	0.04
318.44	15320	0.1408	0.04
318.44	15320	0.1415	0.04
318.54	10340	0.139	0.04
318.56	10340	0.1394	0.04
318.5	10340	0.1403	0.04
318.49	5220	0.1386	0.04
318.59	5220	0.1377	0.04
318.52	5220	0.1382	0.04
318.28	1420	0.1369	0.04
318.31	1420	0.138	0.04
318.4	1420	0.1376	0.04
336.96	20240	0.1393	0.04
337.1	20240	0.1399	0.04
337.13	20240	0.1401	0.04
337.02	15360	0.1403	0.04
337.2	15360	0.1372	0.04
337.14	15360	0.1368	0.04
337.25	10510	0.1368	0.04
337.28	10510	0.1356	0.04
337.04	5660	0.1338	0.04
337.09	5660	0.1353	0.04
337.14	5660	0.1361	0.04
337.22	1270	0.132	0.04
337.24	1270	0.1338	0.04
337.18	1270	0.1332	0.04
356.75	20580	0.1355	0.04
356.79	20580	0.1377	0.04
356.9	20580	0.1346	0.04
356.74	15190	0.1321	0.04
356.83	15190	0.1341	0.04
356.8	15190	0.132	0.04
356.68	10160	0.1329	0.04
356.72	10160	0.1314	0.04
356.71	10160	0.1307	0.04
356.45	5190	0.1334	0.04
356.57	5190	0.1301	0.04
356.61	5190	0.131	0.04
356.75	1040	0.13	0.04
356.7	1040	0.1284	0.04
356.7	1040	0.1284	0.04
377.61	20480	0.1326	0.04
377.6	20480	0.1304	0.04
377.52	20480	0.131	0.04
377.7	15010	0.1284	0.04
377.73	15010	0.1274	0.04
377.62	15010	0.1288	0.04
377.4	10240	0.1302	0.04
377.33	10240	0.1296	0.04
377.46	10240	0.1284	0.04
377.39	5560	0.1272	0.04
377.3	5560	0.1275	0.04
377.31	5560	0.1262	0.04
377.44	1420	0.1248	0.04
377.53	1420	0.1234	0.04
377.6	1420	0.1238	0.04
396.74	20460	0.1297	0.04
396.83	20460	0.1291	0.04
397.07	20460	0.1276	0.04
397.32	15100	0.1242	0.04
397.31	15080	0.1229	0.04
397.22	15080	0.1248	0.04
397.22	10360	0.1224	0.04
397.24	10360	0.1252	0.04
397.38	10410	0.1225	0.04
397.44	5360	0.1209	0.04
397.57	5360	0.1176	0.04
397.52	5360	0.1202	0.04
397.42	1330	0.1182	0.04
397.47	1330	0.1188	0.04
397.49	1330	0.1165	0.04
417.13	20250	0.1228	0.04
417.3	20250	0.1195	0.04
417.16	15230	0.1204	0.04
417.26	15230	0.1223	0.04
417.19	15230	0.1227	0.04
417.27	10550	0.1227	0.0402
417.47	10430	0.1185	0.0403
417.5	10430	0.1178	0.0404
417.11	5290	0.121	0.04
417.37	1130	0.115	0.04
417.36	1130	0.1134	0.04
417.48	1130	0.1123	0.04
436.78	20320	0.1187	0.04
436.73	20320	0.1172	0.04
437.06	15070	0.1143	0.04
437.08	15070	0.1135	0.04
437.1	15070	0.1133	0.04
437.12	10470	0.1112	0.04
436.98	10580	0.1145	0.04
436.9	10760	0.1134	0.0401
436.95	5250	0.111	0.04
437.14	5250	0.1103	0.04
437.1	5250	0.1106	0.04
437.06	1280	0.1105	0.04
437.11	1280	0.1079	0.04
437.25	1280	0.1089	0.04
456.52	20460	0.1176	0.04
456.48	20550	0.1176	0.04
456.66	20460	0.113	0.04
456.86	15300	0.1132	0.04
456.9	15300	0.1124	0.04
456.94	15300	0.1116	0.04
457.03	10370	0.1096	0.04
457.37	10270	0.1084	0.04
457.33	10250	0.1104	0.04
457.18	5400	0.1082	0.04
457.4	5440	0.1059	0.04
457.32	5440	0.1063	0.04
457.03	1550	0.1063	0.04
457.04	1560	0.1059	0.04
457.02	1540	0.1032	0.04
476.68	20310	0.114	0.04
477.06	20970	0.1128	0.04
476.9	20850	0.1106	0.04
476.72	15160	0.1061	0.04
477	15160	0.1082	0.04
476.95	15160	0.1094	0.04
476.97	10330	0.1092	0.04
477.29	10330	0.1023	0.04
477.3	10330	0.1044	0.04
477.3	5120	0.1024	0.04
477.32	5120	0.1031	0.04
477.24	5120	0.1033	0.04
477.33	1080	0.0988	0.04
477.29	1080	0.0998	0.04
477.61	1080	0.1038	0.04
496.62	20420	0.111	0.04
496.95	20420	0.1039	0.04
496.9	20420	0.1069	0.04
496.97	15010	0.1021	0.04
496.96	15010	0.1033	0.04
496.97	15010	0.105	0.04
497.04	10470	0.1024	0.04
496.94	10500	0.102	0.04
497	10530	0.1008	0.04
497.15	5430	0.0965	0.04
496.95	5430	0.0983	0.04
497.1	5410	0.0981	0.04
516.84	20110	0.0998	0.04
516.89	20110	0.1031	0.04
517	20100	0.1021	0.04
517.03	15180	0.099	0.04
516.81	15180	0.104	0.04
517	15180	0.0984	0.04
517.12	5490	0.0948	0.04
517.19	5490	0.094	0.04
517.2	5490	0.0941	0.04
536.59	20650	0.1039	0.04
536.59	20650	0.1025	0.04
536.85	20650	0.0995	0.04
536.99	15650	0.1001	0.04
537.13	15650	0.0975	0.04
537.14	10120	0.0972	0.04
537.39	5310	0.0872	0.04
556.9	20180	0.0999	0.04
557.06	20180	0.098	0.04
557	20180	0.0986	0.04
556.82	15300	0.1002	0.04
557.14	15300	0.0924	0.04
557.12	15300	0.0941	0.04
556.93	10380	0.0967	0.04
557.05	10380	0.0943	0.04
556.55	5420	0.0851	0.04
576.55	20450	0.0998	0.04
577.06	20450	0.0928	0.04
576.95	20450	0.0961	0.04
577.12	15190	0.0924	0.04
577.08	15190	0.0923	0.04
577.15	15190	0.09	0.04
577.16	10320	0.0907	0.04
577.01	10240	0.0944	0.04
577.12	10300	0.0889	0.04
577.1	5140	0.0897	0.04
577.17	5140	0.0888	0.04
577.25	5140	0.0876	0.04
