Measured thermophysical data. A New Instrument for the Measurement of the Thermal Conductivity of Fluids
Source: Int. J. Thermophys., 2006, 10.1007/s10765-006-0093-7
Compound 1: argon, Ar, InChI=1S/Ar

System: argon; phases: Gas
Property: Thermal conductivity, W/m/K (Gas); method: Hot wire method
Temperature, K	Pressure, kPa	Thermal conductivity, W/m/K	uncertainty
304.8	1020	0.01821	0.00045
304.8	1560	0.01835	0.00045
304.8	2320	0.01869	0.00046
304.8	2590	0.01877	0.00046
304.8	4470	0.01959	0.00048
329	1200	0.0193	0.00048
329	1270	0.01953	0.00048
329	1960	0.01978	0.00049
329	2340	0.01995	0.00049
329	3030	0.02016	0.0005
329	3630	0.0203	0.0005
329	5980	0.02118	0.00052
329	7320	0.02192	0.00054
360.05	1240	0.02086	0.00051
360.05	1560	0.02098	0.00051
360.05	1640	0.02104	0.00051
360.05	2240	0.02129	0.00052
360.05	3200	0.02158	0.00053
360.05	4160	0.02192	0.00054
360.05	8720	0.0239	0.00059
389.3	1390	0.02227	0.00054
389.3	2140	0.02255	0.00055
389.3	2780	0.02276	0.00055
389.3	3330	0.02288	0.00056
389.3	3560	0.02304	0.00056
389.3	4190	0.02323	0.00057
389.3	5350	0.02353	0.00057
389.3	6050	0.02385	0.00058
389.3	6660	0.02405	0.00059
389.3	7500	0.0243	0.00059
389.3	8260	0.02466	0.0006
389.3	8500	0.02463	0.0006
417.5	1210	0.02336	0.00057
417.5	1400	0.02343	0.00057
417.5	2110	0.02369	0.00057
417.5	2740	0.02395	0.00058
417.5	3420	0.02415	0.00059
417.5	4130	0.02432	0.00059
417.5	4800	0.02459	0.0006
417.5	5470	0.02478	0.0006
417.5	6180	0.02504	0.00061
417.5	6890	0.02521	0.00061
417.5	7580	0.0256	0.00062
417.5	8270	0.02577	0.00063
475.7	1090	0.02562	0.00062
475.7	1410	0.02575	0.00062
475.7	2120	0.02608	0.00063
475.7	2790	0.02636	0.00064
475.7	3520	0.02652	0.00064
475.7	4250	0.02683	0.00065
475.7	5010	0.02692	0.00065
475.7	6100	0.02742	0.00066
475.7	7980	0.02789	0.00068
