Measured thermophysical data. Isochoric Specific Heat Capacity of Difluoromethane (R32) and a Mixture of 51.11mass% Difluoromethane (R32) + 48.89mass% Pentafluoroethane (R125)
Source: Int. J. Thermophys., 2008, 10.1007/s10765-008-0535-5
Compound 1: difluoromethane, CH2F2, InChI=1S/CH2F2/c2-1-3/h1H2, purity 99.97%
Compound 2: pentafluoroethane, C2HF5, InChI=1S/C2HF5/c3-1(4)2(5,6)7/h1H, purity 99.9%

System: difluoromethane; phases: Liquid
Property: Molar heat capacity at constant volume, J/K/mol (Liquid); method: Vacuum adiabatic calorimetry
Temperature, K	Pressure, kPa	Molar heat capacity at constant volume, J/K/mol	uncertainty
268.15	8268	49.4742404664	1.613245212264
268.15	8502	48.7979364432	1.561221825864
269.15	9280	49.3181703072	1.613245212264
269.15	9512	49.682334012	1.613245212264
270.15	10291	49.4742404664	1.613245212264
270.15	10521	49.8384041712	1.613245212264
271.15	11302	49.42221708	1.613245212264
271.15	11531	49.5262638528	1.613245212264
272.15	12312	49.942450944	1.613245212264
272.15	12421	50.5667315808	1.613245212264
272.15	12540	49.0580533752	1.561221825864
273.15	13321	49.0580533752	1.561221825864
273.15	13429	49.7863807848	1.613245212264
273.15	13551	50.2545912624	1.613245212264
274.15	14330	49.942450944	1.613245212264
274.15	14438	49.6303106256	1.613245212264
274.15	14560	49.3701936936	1.613245212264
275.15	15337	49.4742404664	1.613245212264
275.15	15444	49.8384041712	1.613245212264
275.15	15568	49.4742404664	1.613245212264
276.15	16344	49.8904275576	1.613245212264
276.15	16452	49.8384041712	1.613245212264
276.15	16577	49.7343573984	1.613245212264
277.15	17350	49.3181703072	1.613245212264
277.15	17457	49.6303106256	1.613245212264
277.15	17583	49.9944743304	1.613245212264
278.15	18354	49.8904275576	1.613245212264
278.15	18462	50.2545912624	1.613245212264
278.15	18589	49.4742404664	1.613245212264
279.15	19358	49.8904275576	1.613245212264
279.15	19465	49.7863807848	1.613245212264
279.15	19595	50.1505444896	1.613245212264
280.15	20361	49.6303106256	1.613245212264
280.15	20468	50.202567876	1.613245212264
280.15	20598	49.9944743304	1.613245212264
281.15	21363	50.462684808	1.613245212264
281.15	21470	49.6303106256	1.613245212264
281.15	21601	49.8904275576	1.613245212264
282.15	22363	49.5782872392	1.613245212264
282.15	22472	50.2545912624	1.613245212264
282.15	22602	50.0464977168	1.613245212264
283.15	23363	50.4106614216	1.613245212264
283.15	23473	50.1505444896	1.613245212264
283.15	23603	49.942450944	1.613245212264
284.15	24362	50.3066146488	1.613245212264
284.15	24472	49.942450944	1.613245212264
284.15	24606	50.2545912624	1.613245212264
285.15	25359	50.1505444896	1.613245212264
285.15	25470	50.5147081944	1.613245212264
285.15	25603	50.2545912624	1.613245212264
286.15	26356	50.5147081944	1.613245212264
286.15	26466	50.6187549672	1.613245212264
286.15	26598	50.202567876	1.613245212264
287.15	27351	50.3586380352	1.613245212264
287.15	27461	50.202567876	1.613245212264
287.15	27594	50.3586380352	1.613245212264
288.15	28345	50.5667315808	1.613245212264
288.15	28454	50.6187549672	1.613245212264
288.15	28588	50.4106614216	1.613245212264
289.15	5774	51.243035604	1.6647483648
289.15	5835	49.7863807848	1.613245212264
289.15	29338	50.462684808	1.613245212264
289.15	29446	50.72280174	1.613245212264
289.15	29581	51.0869654448	1.6647483648
290.15	6570	50.6187549672	1.613245212264
290.15	6631	50.9308952856	1.6647483648
291.15	7365	51.1389888312	1.6647483648
291.15	7428	51.1910122176	1.6647483648
292.15	8161	51.243035604	1.6647483648
292.15	8224	51.1389888312	1.6647483648
293.15	8956	51.3991057632	1.6647483648
293.15	9019	51.7112460816	1.6647483648
294.15	9752	51.6592226952	1.6647483648
294.15	9815	50.8268485128	1.6647483648
295.15	10546	51.1910122176	1.6647483648
295.15	10610	51.5551759224	1.6647483648
296.15	11341	51.1910122176	1.6647483648
296.15	11405	51.503152536	1.6647483648
297.15	12135	51.6071993088	1.6647483648
297.15	12199	51.3470823768	1.6647483648
298.15	12929	51.503152536	1.6647483648
298.15	12993	51.9193396272	1.6647483648
299.15	13723	51.6592226952	1.6647483648
299.15	13787	51.8152928544	1.6647483648
300.15	14517	51.6592226952	1.6647483648
300.15	14581	52.0754097864	1.6647483648
301.15	15309	52.3355267184	1.6647483648
301.15	15374	51.9193396272	1.6647483648
302.15	16102	52.0754097864	1.6647483648
302.15	16167	52.2314799456	1.6647483648
303.15	16894	52.1274331728	1.6647483648
303.15	16960	52.4915968776	1.6647483648
304.15	17685	52.1274331728	1.6647483648
304.15	17752	52.543620264	1.7167717512
305.15	18476	52.7517138096	1.7167717512
305.15	18543	52.5956436504	1.7167717512
306.15	19267	52.7517138096	1.7167717512
306.15	19335	52.803737196	1.7167717512
307.15	20125	52.4915968776	1.6647483648
308.15	20848	52.9077839688	1.7167717512
308.15	20915	52.803737196	1.7167717512
309.15	21639	52.6996904232	1.7167717512
309.15	21704	53.32397106	1.7167717512
310.15	22429	52.8557605824	1.7167717512
310.15	22492	53.1158775144	1.7167717512
311.15	23217	53.1679009008	1.7167717512
311.15	23281	53.6881347648	1.7167717512
312.15	24005	53.6361113784	1.7167717512
312.15	24068	53.7921815376	1.7167717512
313.15	24793	53.5320646056	1.7167717512
313.15	24855	53.7921815376	1.7167717512
314.15	25579	53.7921815376	1.7167717512
314.15	25641	53.4280178328	1.7167717512
315.15	26364	53.584087992	1.7167717512
315.15	26427	54.0002750832	1.7167717512
316.15	27149	53.5320646056	1.7167717512
316.15	27212	54.6765791064	1.7687951376
317.15	27934	54.4164621744	1.7687951376
317.15	27996	54.2083686288	1.7687951376
318.15	28719	54.104321856	1.7687951376
318.15	28779	54.7806258792	1.7687951376

System: difluoromethane; phases: Liquid
Property: Mass density, kg/m3 (Liquid); method: Pycnometric method
Temperature, K	Pressure, kPa	Mass density, kg/m3	uncertainty
268.15	8268	1093.5	1.8
268.15	8502	1093.5	1.8
269.15	9280	1093.3	1.8
269.15	9512	1093.3	1.8
270.15	10291	1093.2	1.8
270.15	10521	1093.2	1.8
271.15	11302	1093	1.8
271.15	11531	1093	1.8
272.15	12312	1092.9	1.8
272.15	12421	1092.9	1.8
272.15	12540	1092.9	1.8
273.15	13321	1092.7	1.8
273.15	13429	1092.8	1.8
273.15	13551	1092.7	1.8
274.15	14330	1092.6	1.8
274.15	14438	1092.6	1.8
274.15	14560	1092.6	1.8
275.15	15337	1092.4	1.8
275.15	15444	1092.4	1.8
275.15	15568	1092.4	1.8
276.15	16344	1092.3	1.8
276.15	16452	1092.3	1.8
276.15	16577	1092.3	1.8
277.15	17350	1092.1	1.8
277.15	17457	1092.1	1.8
277.15	17583	1092.1	1.8
278.15	18354	1092	1.8
278.15	18462	1092	1.8
278.15	18589	1092	1.8
279.15	19358	1091.8	1.8
279.15	19465	1091.8	1.8
279.15	19595	1091.8	1.8
280.15	20361	1091.7	1.8
280.15	20468	1091.7	1.8
280.15	20598	1091.7	1.8
281.15	21363	1091.5	1.8
281.15	21470	1091.5	1.8
281.15	21601	1091.5	1.8
282.15	22363	1091.4	1.8
282.15	22472	1091.4	1.8
282.15	22602	1091.4	1.8
283.15	23363	1091.2	1.8
283.15	23473	1091.2	1.8
283.15	23603	1091.2	1.8
284.15	24362	1091.1	1.8
284.15	24472	1091.1	1.8
284.15	24606	1091	1.8
285.15	25359	1090.9	1.8
285.15	25470	1090.9	1.8
285.15	25603	1090.9	1.8
286.15	26356	1090.8	1.8
286.15	26466	1090.8	1.8
286.15	26598	1090.7	1.8
287.15	27351	1090.6	1.8
287.15	27461	1090.6	1.8
287.15	27594	1090.6	1.8
288.15	28345	1090.4	1.8
288.15	28454	1090.4	1.8
288.15	28588	1090.4	1.8
289.15	5774	1015.9	1.6
289.15	5835	1015.9	1.6
289.15	29338	1090.3	1.8
289.15	29446	1090.3	1.8
289.15	29581	1090.3	1.8
290.15	6570	1015.8	1.6
290.15	6631	1015.8	1.6
291.15	7365	1015.7	1.6
291.15	7428	1015.7	1.6
292.15	8161	1015.6	1.6
292.15	8224	1015.5	1.6
293.15	8956	1015.5	1.6
293.15	9019	1015.4	1.6
294.15	9752	1015.3	1.6
294.15	9815	1015.3	1.6
295.15	10546	1015.2	1.6
295.15	10610	1015.2	1.6
296.15	11341	1015.1	1.6
296.15	11405	1015.1	1.6
297.15	12135	1015	1.6
297.15	12199	1014.9	1.6
298.15	12929	1014.9	1.6
298.15	12993	1014.8	1.6
299.15	13723	1014.7	1.6
299.15	13787	1014.7	1.6
300.15	14517	1014.6	1.6
300.15	14581	1014.6	1.6
301.15	15309	1014.5	1.6
301.15	15374	1014.4	1.6
302.15	16102	1014.4	1.6
302.15	16167	1014.3	1.6
303.15	16894	1014.2	1.6
303.15	16960	1014.2	1.6
304.15	17685	1014.1	1.6
304.15	17752	1014.1	1.6
305.15	18476	1014	1.6
305.15	18543	1014	1.6
306.15	19267	1013.9	1.6
306.15	19335	1013.8	1.6
307.15	20125	1013.7	1.6
308.15	20848	1013.6	1.6
308.15	20915	1013.6	1.6
309.15	21639	1013.5	1.6
309.15	21704	1013.4	1.6
310.15	22429	1013.4	1.6
310.15	22492	1013.3	1.6
311.15	23217	1013.3	1.6
311.15	23281	1013.2	1.6
312.15	24005	1013.2	1.6
312.15	24068	1013.1	1.6
313.15	24793	1013	1.6
313.15	24855	1012.9	1.6
314.15	25579	1012.9	1.6
314.15	25641	1012.8	1.6
315.15	26364	1012.8	1.6
315.15	26427	1012.7	1.6
316.15	27149	1012.7	1.6
316.15	27212	1012.6	1.6
317.15	27934	1012.5	1.6
317.15	27996	1012.4	1.6
318.15	28719	1012.4	1.6
318.15	28779	1012.3	1.6

System: difluoromethane + pentafluoroethane; phases: Liquid
Fixed: Mass fraction of difluoromethane = 0.5111
Property: Molar heat capacity at constant volume, J/K/mol (Liquid); method: Vacuum adiabatic calorimetry
Temperature, K	Pressure, kPa	Molar heat capacity at constant volume, J/K/mol	uncertainty
268.15	3423	62.959	2.015
269.15	4259	64.111	2.087
270.15	5065	63.823	2.087
270.15	5095	63.247	2.015
270.15	5157	63.823	2.087
271.15	5903	64.902	2.087
271.15	5931	64.039	2.087
271.15	5992	62.959	2.015
272.15	6740	64.182	2.087
272.15	6767	64.614	2.087
272.15	6828	63.247	2.015
273.15	7576	64.542	2.087
273.15	7602	63.823	2.087
273.15	7662	64.039	2.087
274.15	8411	65.118	2.087
274.15	8437	65.19	2.087
274.15	8496	63.823	2.087
275.15	9245	64.902	2.087
275.15	9272	64.902	2.087
275.15	9328	63.751	2.087
276.15	10082	65.765	2.087
276.15	10107	64.83	2.087
276.15	10161	64.254	2.087
277.15	10917	65.837	2.087
277.15	10942	65.622	2.087
277.15	10993	65.046	2.087
278.15	11753	66.053	2.159
278.15	11776	65.55	2.087
278.15	11824	64.398	2.087
279.15	12587	65.694	2.087
279.15	12611	66.125	2.159
279.15	12657	65.334	2.087
280.15	13423	66.917	2.159
280.15	13444	65.118	2.087
280.15	13488	64.902	2.087
281.15	14258	65.694	2.087
281.15	14277	66.629	2.159
281.15	14319	65.694	2.087
282.15	15091	66.917	2.159
282.15	15110	66.269	2.159
282.15	15148	65.55	2.087
283.15	15926	66.629	2.159
283.15	15943	66.053	2.159
283.15	15978	64.758	2.087
284.15	16759	66.557	2.159
284.15	16775	66.341	2.159
284.15	16808	66.053	2.159
285.15	17592	67.205	2.159
285.15	17606	67.061	2.159
285.15	17637	65.765	2.159
286.15	18423	66.773	2.159
286.15	18437	66.701	2.159
286.15	18467	66.413	2.159
287.15	19253	66.197	2.159
287.15	19268	66.701	2.159
287.15	19297	65.19	2.087
288.15	20083	67.348	2.159
288.15	20097	67.276	2.159
288.15	20124	66.053	2.159
289.15	20914	67.348	2.159
289.15	20926	66.701	2.159
289.15	20951	66.269	2.159
290.15	21743	67.492	2.159
290.15	21755	67.276	2.159
290.15	21778	66.125	2.159
291.15	22571	67.276	2.159
291.15	22583	66.701	2.159
291.15	22607	66.053	2.159
292.15	23400	67.348	2.159
292.15	23410	67.348	2.159
292.15	23433	66.629	2.159
293.15	24226	67.133	2.159
293.15	24236	67.061	2.159
293.15	24257	66.197	2.159
294.15	25053	67.42	2.159
294.15	25062	67.42	2.159
294.15	25082	67.276	2.159
295.15	25878	66.845	2.159
295.15	25887	67.133	2.159
295.15	25903	65.046	2.087
296.15	5585	69.435	2.231
296.15	5620	68.572	2.231
296.15	5667	65.837	2.159
296.15	26704	67.924	2.159
296.15	26711	66.989	2.159
296.15	26725	66.485	2.159
297.15	6213	68.716	2.231
297.15	6246	68.859	2.231
297.15	6292	68.14	2.159
297.15	27528	67.276	2.159
297.15	27534	66.629	2.159
297.15	27546	66.197	2.159
298.15	6841	70.083	2.231
298.15	6872	68.284	2.231
298.15	6917	67.78	2.159
298.15	28352	66.989	2.159
298.15	28357	66.845	2.159
298.15	28366	65.478	2.087
299.15	7469	69.075	2.231
299.15	7499	69.291	2.231
299.15	7541	67.276	2.159
299.15	29176	67.564	2.159
299.15	29179	67.492	2.159
299.15	29186	66.053	2.087
300.15	8097	69.147	2.231
300.15	8124	67.852	2.159
300.15	8166	68.068	2.159
300.15	29998	66.557	2.159
300.15	29999	65.55	2.087
300.15	30003	66.701	2.159
301.15	8725	68.572	2.231
301.15	8750	68.068	2.159
301.15	8791	67.924	2.159
302.15	9353	68.14	2.159
302.15	9377	68.859	2.231
302.15	9417	66.989	2.159
303.15	9980	68.572	2.231
303.15	10003	68.284	2.231
303.15	10042	67.205	2.159
304.15	10607	68.716	2.231
304.15	10629	66.917	2.159
304.15	10667	67.492	2.159
305.15	11234	66.917	2.159
305.15	11256	67.42	2.159
305.15	11292	66.053	2.159
306.15	11861	68.14	2.231
306.15	11881	66.989	2.159
306.15	11917	66.197	2.159
307.15	12487	66.773	2.159
307.15	12507	67.276	2.159
307.15	12541	66.917	2.159
308.15	13114	67.061	2.159
308.15	13133	67.348	2.231
308.15	13165	65.837	2.159
309.15	13740	66.917	2.159
309.15	13758	67.133	2.159
309.15	13790	66.125	2.159
310.15	14367	67.133	2.159
310.15	14384	66.053	2.159
310.15	14414	65.909	2.159
311.15	14992	66.485	2.159
311.15	15009	66.197	2.159
311.15	15038	65.837	2.087
312.15	15618	64.902	2.087
312.15	15634	67.133	2.231
312.15	15662	65.262	2.087
313.15	16243	66.701	2.159
313.15	16259	66.197	2.159
313.15	16286	65.262	2.087
314.15	16869	66.197	2.159
314.15	16883	65.981	2.159
314.15	16910	65.262	2.087
315.15	17493	65.765	2.159
315.15	17507	65.837	2.159
315.15	17534	64.542	2.087
316.15	18118	65.765	2.087
316.15	18131	65.118	2.087
316.15	18158	64.902	2.087
317.15	18743	65.478	2.087
317.15	18755	64.326	2.087
317.15	18781	64.47	2.087
318.15	19367	64.974	2.087
318.15	19379	64.902	2.087
318.15	19404	64.254	2.087
319.15	19990	65.046	2.087
319.15	20003	65.118	2.087
319.15	20027	64.614	2.087
320.15	20613	63.751	2.087
320.15	20627	65.765	2.087
320.15	20649	64.326	2.087
321.15	21236	64.686	2.087
321.15	21250	64.686	2.087
321.15	21272	63.607	2.087
322.15	21858	64.686	2.087
322.15	21873	63.895	2.087
322.15	21894	64.039	2.087
323.15	22480	63.895	2.087
323.15	22495	63.895	2.087
323.15	22516	63.607	2.015
324.15	23103	64.326	2.087
324.15	23117	64.974	2.087
324.15	23137	62.6	2.087
325.15	23725	64.254	2.087
325.15	23738	63.391	2.015
325.15	23758	63.103	2.015
326.15	24347	64.326	2.087
326.15	24361	64.902	2.087
326.15	24379	62.743	2.087
327.15	24970	63.751	2.015
327.15	24981	63.103	2.015
327.15	25000	63.679	2.015
328.15	25590	62.959	2.015
328.15	25601	63.103	2.015
328.15	25620	62.168	2.015

System: difluoromethane + pentafluoroethane; phases: Liquid
Fixed: Mass fraction of difluoromethane = 0.5111
Property: Mass density, kg/m3 (Liquid); method: Pycnometric method
Temperature, K	Pressure, kPa	Mass density, kg/m3	uncertainty
268.15	3423	1190.3	1.9
269.15	4259	1190.1	1.9
270.15	5065	1189.9	1.9
270.15	5095	1189.9	1.9
270.15	5157	1190.1	1.9
271.15	5903	1189.7	1.9
271.15	5931	1189.7	1.9
271.15	5992	1189.9	1.9
272.15	6740	1189.6	1.9
272.15	6767	1189.5	1.9
272.15	6828	1189.7	1.9
273.15	7576	1189.4	1.9
273.15	7602	1189.3	1.9
273.15	7662	1189.5	1.9
274.15	8411	1189.2	1.9
274.15	8437	1189.2	1.9
274.15	8496	1189.3	1.9
275.15	9245	1189	1.9
275.15	9272	1189	1.9
275.15	9328	1189.2	1.9
276.15	10082	1188.8	1.9
276.15	10107	1188.8	1.9
276.15	10161	1189	1.9
277.15	10917	1188.6	1.9
277.15	10942	1188.6	1.9
277.15	10993	1188.8	1.9
278.15	11753	1188.4	1.9
278.15	11776	1188.4	1.9
278.15	11824	1188.6	1.9
279.15	12587	1188.2	1.9
279.15	12611	1188.2	1.9
279.15	12657	1188.4	1.9
280.15	13423	1188.1	1.9
280.15	13444	1188.1	1.9
280.15	13488	1188.2	1.9
281.15	14258	1187.9	1.9
281.15	14277	1187.9	1.9
281.15	14319	1188.1	1.9
282.15	15091	1187.7	1.9
282.15	15110	1187.7	1.9
282.15	15148	1187.9	1.9
283.15	15926	1187.5	1.9
283.15	15943	1187.6	1.9
283.15	15978	1187.7	1.9
284.15	16759	1187.4	1.9
284.15	16775	1187.4	1.9
284.15	16808	1187.6	1.9
285.15	17592	1187.2	1.9
285.15	17606	1187.2	1.9
285.15	17637	1187.4	1.9
286.15	18423	1187.1	1.9
286.15	18437	1187.1	1.9
286.15	18467	1187.2	1.9
287.15	19253	1186.9	1.9
287.15	19268	1186.9	1.9
287.15	19297	1187.1	1.9
288.15	20083	1186.7	1.9
288.15	20097	1186.8	1.9
288.15	20124	1186.9	1.9
289.15	20914	1186.6	1.9
289.15	20926	1186.6	1.9
289.15	20951	1186.8	1.9
290.15	21743	1186.4	1.9
290.15	21755	1186.5	1.9
290.15	21778	1186.6	1.9
291.15	22571	1186.3	1.9
291.15	22583	1186.3	1.9
291.15	22607	1186.5	1.9
292.15	23400	1186.2	1.9
292.15	23410	1186.2	1.9
292.15	23433	1186.4	1.9
293.15	24226	1186	1.9
293.15	24236	1186	1.9
293.15	24257	1186.2	1.9
294.15	25053	1185.9	1.9
294.15	25062	1185.9	1.9
294.15	25082	1186.1	1.9
295.15	25878	1185.7	1.9
295.15	25887	1185.7	1.9
295.15	25903	1185.9	1.9
296.15	5585	1097.9	1.8
296.15	5620	1097.9	1.8
296.15	5667	1097.9	1.8
296.15	26704	1185.6	1.9
296.15	26711	1185.6	1.9
296.15	26725	1185.8	1.9
297.15	6213	1097.7	1.8
297.15	6246	1097.7	1.8
297.15	6292	1097.7	1.8
297.15	27528	1185.5	1.9
297.15	27534	1185.5	1.9
297.15	27546	1185.6	1.9
298.15	6841	1097.5	1.8
298.15	6872	1097.5	1.8
298.15	6917	1097.6	1.8
298.15	28352	1185.4	1.9
298.15	28357	1185.3	1.9
298.15	28366	1185.5	1.9
299.15	7469	1097.4	1.8
299.15	7499	1097.4	1.8
299.15	7541	1097.4	1.8
299.15	29176	1185.2	1.9
299.15	29179	1185.2	1.9
299.15	29186	1185.4	1.9
300.15	8097	1097.2	1.8
300.15	8124	1097.2	1.8
300.15	8166	1097.2	1.8
300.15	29998	1185.1	1.9
300.15	29999	1185.1	1.9
300.15	30003	1185.2	1.9
301.15	8725	1097.1	1.8
301.15	8750	1097.1	1.8
301.15	8791	1097.1	1.8
302.15	9353	1096.9	1.8
302.15	9377	1096.9	1.8
302.15	9417	1096.9	1.8
303.15	9980	1096.8	1.8
303.15	10003	1096.8	1.8
303.15	10042	1096.8	1.8
304.15	10607	1096.6	1.8
304.15	10629	1096.6	1.8
304.15	10667	1096.7	1.8
305.15	11234	1096.5	1.8
305.15	11256	1096.5	1.8
305.15	11292	1096.5	1.8
306.15	11861	1096.4	1.8
306.15	11881	1096.4	1.8
306.15	11917	1096.4	1.8
307.15	12487	1096.2	1.8
307.15	12507	1096.2	1.8
307.15	12541	1096.2	1.8
308.15	13114	1096.1	1.8
308.15	13133	1096.1	1.8
308.15	13165	1096.1	1.8
309.15	13740	1095.9	1.8
309.15	13758	1095.9	1.8
309.15	13790	1095.9	1.8
310.15	14367	1095.8	1.8
310.15	14384	1095.8	1.8
310.15	14414	1095.8	1.8
311.15	14992	1095.6	1.8
311.15	15009	1095.7	1.8
311.15	15038	1095.7	1.8
312.15	15618	1095.5	1.8
312.15	15634	1095.5	1.8
312.15	15662	1095.5	1.8
313.15	16243	1095.4	1.8
313.15	16259	1095.4	1.8
313.15	16286	1095.4	1.8
314.15	16869	1095.2	1.8
314.15	16883	1095.2	1.8
314.15	16910	1095.3	1.8
315.15	17493	1095.1	1.8
315.15	17507	1095.1	1.8
315.15	17534	1095.1	1.8
316.15	18118	1095	1.8
316.15	18131	1095	1.8
316.15	18158	1095	1.8
317.15	18743	1094.9	1.8
317.15	18755	1094.9	1.8
317.15	18781	1094.9	1.8
318.15	19367	1094.7	1.8
318.15	19379	1094.7	1.8
318.15	19404	1094.8	1.8
319.15	19990	1094.6	1.8
319.15	20003	1094.6	1.8
319.15	20027	1094.6	1.8
320.15	20613	1094.5	1.8
320.15	20627	1094.5	1.8
320.15	20649	1094.5	1.8
321.15	21236	1094.4	1.8
321.15	21250	1094.4	1.8
321.15	21272	1094.4	1.8
322.15	21858	1094.2	1.8
322.15	21873	1094.3	1.8
322.15	21894	1094.3	1.8
323.15	22480	1094.1	1.8
323.15	22495	1094.1	1.8
323.15	22516	1094.2	1.8
324.15	23103	1094	1.8
324.15	23117	1094	1.8
324.15	23137	1094	1.8
325.15	23725	1093.9	1.8
325.15	23738	1093.9	1.8
325.15	23758	1093.9	1.8
326.15	24347	1093.8	1.8
326.15	24361	1093.8	1.8
326.15	24379	1093.8	1.8
327.15	24970	1093.7	1.8
327.15	24981	1093.7	1.8
327.15	25000	1093.7	1.8
328.15	25590	1093.6	1.8
328.15	25601	1093.6	1.8
328.15	25620	1093.6	1.8
