Measured thermophysical data. Study of Acoustic Parameters in Binary Mixture at Variable Frequencies
Source: Int. J. Thermophys., 2013, 10.1007/s10765-013-1527-7
Compound 1: acetone, C3H6O, InChI=1S/C3H6O/c1-3(2)4/h1-2H3
Compound 2: toluene, C7H8, InChI=1S/C7H8/c1-7-5-3-2-4-6-7/h2-6H,1H3

System: acetone; phases: Liquid
Fixed: Pressure, kPa = 101
Fixed: Temperature, K = 303
Fixed: Frequency, MHz = 5
Property: Speed of sound, m/s (Liquid); method: Linear variable-path acoustic interferometer
Speed of sound, m/s	uncertainty
920	2
1290	2
1428	2

System: toluene; phases: Liquid
Fixed: Pressure, kPa = 101
Fixed: Temperature, K = 303
Fixed: Frequency, MHz = 5
Property: Speed of sound, m/s (Liquid); method: Linear variable-path acoustic interferometer
Speed of sound, m/s	uncertainty
966	2
1050	2
1166	2

System: acetone + toluene; phases: Liquid
Fixed: Pressure, kPa = 101
Fixed: Temperature, K = 303
Fixed: Frequency, MHz = 1
Property: Speed of sound, m/s (Liquid); method: Linear variable-path acoustic interferometer
Mole fraction of acetone	Speed of sound, m/s	uncertainty
0	966	2
0.135	946	2
0.27	887	2
0.331	870	2
0.456	862	2
0.51	855	2
0.605	811	2
0.745	800	2
0.831	795	2
0.937	850	2
1	920	2

System: acetone + toluene; phases: Liquid
Fixed: Pressure, kPa = 101
Fixed: Temperature, K = 303
Fixed: Frequency, MHz = 3
Property: Speed of sound, m/s (Liquid); method: Linear variable-path acoustic interferometer
Mole fraction of acetone	Speed of sound, m/s	uncertainty
0	1050	2
0.135	1040	2
0.27	1032	2
0.331	1020	2
0.456	1000	2
0.51	981	2
0.605	965	2
0.745	943	2
0.831	928	2
0.937	1028	2
1	1290	2

System: acetone + toluene; phases: Liquid
Fixed: Pressure, kPa = 101
Fixed: Temperature, K = 303
Fixed: Frequency, MHz = 5
Property: Speed of sound, m/s (Liquid); method: Linear variable-path acoustic interferometer
Mole fraction of acetone	Speed of sound, m/s	uncertainty
0	1166	2
0.135	1150	2
0.27	1130	2
0.331	1102	2
0.456	1080	2
0.51	1040	2
0.605	1010	2
0.745	1000	2
0.831	1150	2
0.937	1230	2
1	1428	2

System: acetone + toluene; phases: Liquid
Fixed: Temperature, K = 303
Fixed: Pressure, kPa = 101
Property: Mass density, kg/m3 (Liquid); method: Pycnometric method
Mole fraction of acetone	Mass density, kg/m3	uncertainty
0	860	1
0.135	850	1
0.27	840	1
0.331	836	1
0.456	827	1
0.51	823	1
0.605	817	1
0.745	807	1
0.831	800	1
0.937	793	1
1	789	1
