Measured thermophysical data. Viscosity Measurements of Dialkyl Adipates in the Temperature Range of (283 to 363) K and up to 40 MPa
Source: Int. J. Thermophys., 2019, 10.1007/s10765-019-2573-6
Compound 1: dimethyl 1,6-hexanedioate, C8H14O4, InChI=1S/C8H14O4/c1-11-7(9)5-3-4-6-8(10)12-2/h3-6H2,1-2H3, purity 99%
Compound 2: diethyl hexanedioate, C10H18O4, InChI=1S/C10H18O4/c1-3-13-9(11)7-5-6-8-10(12)14-4-2/h3-8H2,1-2H3, purity 99%
Compound 3: dipropyl hexanedioate, C12H22O4, InChI=1S/C12H22O4/c1-3-9-15-11(13)7-5-6-8-12(14)16-10-4-2/h3-10H2,1-2H3, purity 98%
Compound 4: dibutyl hexanedioate, C14H26O4, InChI=1S/C14H26O4/c1-3-5-11-17-13(15)9-7-8-10-14(16)18-12-6-4-2/h3-12H2,1-2H3, purity 99%

System: dimethyl 1,6-hexanedioate; phases: Liquid
Property: Viscosity, Pa*s (Liquid); method: Vibrating wire viscometry
Temperature, K	Pressure, kPa	Viscosity, Pa*s	uncertainty
293.17	100	0.0033017	6.99e-05
293.17	1000	0.0033311	7.05e-05
293.15	5000	0.0034604	7.32e-05
293.15	10000	0.0036228	7.66e-05
293.15	15000	0.0037874	8e-05
293.15	20000	0.0039575	8.36e-05
293.15	30000	0.0043327	9.14e-05
293.15	40000	0.0047221	9.95e-05
303.17	100	0.0026168	5.58e-05
303.17	1000	0.0026374	5.71e-05
303.15	5000	0.0027346	5.8e-05
303.15	10000	0.0028541	6.05e-05
303.16	15000	0.0029853	6.32e-05
303.16	20000	0.0031153	6.59e-05
303.16	30000	0.0033842	7.16e-05
303.16	40000	0.0036722	7.76e-05
313.15	100	0.0021286	4.54e-05
313.14	1000	0.0021512	4.65e-05
313.15	5000	0.0022266	4.74e-05
313.15	10000	0.0023257	4.94e-05
313.14	15000	0.0024218	5.14e-05
313.14	20000	0.0025218	5.35e-05
313.14	30000	0.0027271	5.78e-05
313.15	40000	0.0029553	6.26e-05
323.15	100	0.0017744	3.79e-05
323.15	1000	0.001789	3.86e-05
323.15	5000	0.0018498	3.95e-05
323.15	10000	0.0019284	4.11e-05
323.15	15000	0.0020079	4.28e-05
323.15	20000	0.0020885	4.45e-05
323.15	30000	0.0022538	4.79e-05
323.14	40000	0.0024322	5.17e-05
333.15	100	0.001503	3.23e-05
333.15	1000	0.0015137	3.27e-05
333.15	5000	0.0015648	3.35e-05
333.15	10000	0.0016293	3.49e-05
333.15	15000	0.0016956	3.63e-05
333.15	20000	0.0017638	3.77e-05
333.15	30000	0.0019034	4.06e-05
333.14	40000	0.0020465	4.36e-05
343.15	100	0.0012934	2.79e-05
343.15	1000	0.0013031	2.83e-05
343.15	5000	0.0013463	2.9e-05
343.15	10000	0.0014005	3.01e-05
343.15	15000	0.0014568	3.13e-05
343.15	20000	0.0015137	3.25e-05
343.15	30000	0.0016304	3.49e-05
343.15	40000	0.0017516	3.74e-05
353.15	100	0.0011277	2.44e-05
353.16	1000	0.0011361	2.47e-05
353.15	5000	0.0011742	2.54e-05
353.15	10000	0.001221	2.64e-05
353.15	15000	0.0012689	2.74e-05
353.15	20000	0.0013174	2.84e-05
353.15	30000	0.0014167	3.05e-05
353.15	40000	0.0015197	3.26e-05
363.15	100	0.0009897	2.16e-05
363.15	1000	0.0009971	2.18e-05
363.15	5000	0.0010303	2.24e-05
363.15	10000	0.0010723	2.33e-05
363.13	15000	0.0011145	2.42e-05
363.13	20000	0.0011573	2.51e-05
363.15	30000	0.0012439	2.69e-05
363.15	40000	0.0013321	2.87e-05

System: diethyl hexanedioate; phases: Liquid
Property: Viscosity, Pa*s (Liquid); method: Vibrating wire viscometry
Temperature, K	Pressure, kPa	Viscosity, Pa*s	uncertainty
283.15	100	0.0045405	9.59e-05
283.15	1000	0.0045895	9.69e-05
283.15	5000	0.0047921	0.0001011
283.15	10000	0.0050621	0.0001067
283.15	15000	0.0053319	0.0001124
283.15	20000	0.0056216	0.0001185
283.16	30000	0.0062229	0.000131
283.15	40000	0.0068866	0.0001449
293.15	100	0.0034862	7.43e-05
293.15	1000	0.003521	7.69e-05
293.15	5000	0.0036723	7.76e-05
293.15	10000	0.0038679	8.17e-05
293.15	15000	0.0040747	8.6e-05
293.15	20000	0.0042783	9.03e-05
293.15	30000	0.0047218	9.96e-05
293.15	40000	0.005195	0.0001096
303.15	100	0.0027663	5.88e-05
303.15	1000	0.0027923	6.05e-05
303.15	5000	0.0029116	6.17e-05
303.15	10000	0.0030629	6.49e-05
303.15	15000	0.0032068	6.79e-05
303.15	20000	0.003361	7.11e-05
303.15	30000	0.0036955	7.81e-05
303.15	40000	0.0040422	8.54e-05
313.15	100	0.0022525	4.79e-05
313.16	1000	0.0022717	4.9e-05
313.15	5000	0.0023617	5.02e-05
313.15	10000	0.0024781	5.26e-05
313.15	15000	0.002597	5.51e-05
313.15	20000	0.0027206	5.77e-05
313.15	30000	0.002978	6.31e-05
313.15	40000	0.0032507	6.88e-05
323.15	100	0.0018698	3.99e-05
323.15	1000	0.0018858	4.07e-05
323.15	5000	0.0019606	4.18e-05
323.15	10000	0.0020537	4.38e-05
323.15	15000	0.0021509	4.58e-05
323.15	20000	0.0022485	4.78e-05
323.15	30000	0.0024607	5.23e-05
323.15	40000	0.0026798	5.68e-05
333.15	100	0.0015793	3.38e-05
333.15	1000	0.0015923	3.44e-05
333.15	5000	0.0016529	3.54e-05
333.15	10000	0.0017335	3.71e-05
333.15	15000	0.0018143	3.88e-05
333.15	20000	0.0018958	4.04e-05
333.15	30000	0.0020658	4.4e-05
333.15	40000	0.0022487	4.78e-05
343.15	100	0.0013538	2.91e-05
343.15	1000	0.0013672	2.96e-05
343.15	5000	0.0014189	3.05e-05
343.15	10000	0.0014873	3.19e-05
343.15	15000	0.0015546	3.33e-05
343.15	20000	0.0016241	3.48e-05
343.15	30000	0.0017654	3.77e-05
343.15	40000	0.0019172	4.09e-05
353.15	100	0.0011765	2.54e-05
353.14	1000	0.0011873	2.58e-05
353.15	5000	0.0012326	2.66e-05
353.15	10000	0.0012925	2.79e-05
353.15	15000	0.0013512	2.91e-05
353.15	20000	0.0014115	3.04e-05
353.15	30000	0.0015345	3.29e-05
353.15	40000	0.0016616	3.56e-05
363.15	100	0.001032	2.25e-05
363.15	1000	0.001041	2.27e-05
363.15	5000	0.0010811	2.35e-05
363.15	10000	0.0011328	2.46e-05
363.15	15000	0.0011834	2.56e-05
363.15	20000	0.0012363	2.67e-05
363.15	30000	0.0013434	2.89e-05
363.15	40000	0.0014533	3.12e-05

System: dipropyl hexanedioate; phases: Liquid
Property: Viscosity, Pa*s (Liquid); method: Vibrating wire viscometry
Temperature, K	Pressure, kPa	Viscosity, Pa*s	uncertainty
283.15	100	0.0061533	0.0001402
283.15	1000	0.0062173	0.0001416
283.15	5000	0.006536	0.0001489
283.15	10000	0.0069433	0.0001581
283.15	15000	0.0073601	0.0001675
283.15	20000	0.0078113	0.0001778
283.15	30000	0.0087586	0.0001992
283.15	40000	0.0097597	0.0002219
293.15	100	0.0045992	0.000106
293.14	1000	0.0046501	0.00011
293.15	5000	0.0048701	0.0001111
293.15	10000	0.0051548	0.0001175
293.15	15000	0.0054559	0.0001244
293.15	20000	0.0057726	0.0001315
293.15	30000	0.0064294	0.0001464
293.15	40000	0.0071687	0.0001634
303.15	100	0.0035666	8.19e-05
303.15	1000	0.0036041	8.45e-05
303.15	5000	0.0037658	8.6e-05
303.15	10000	0.0039833	9.1e-05
303.15	15000	0.0042054	9.6e-05
303.15	20000	0.0044338	0.0001011
303.15	30000	0.0049375	0.0001126
303.15	40000	0.005457	0.0001244
313.15	100	0.0028538	6.54e-05
313.15	1000	0.0028886	6.73e-05
313.15	5000	0.003014	6.9e-05
313.15	10000	0.0031776	7.27e-05
313.15	15000	0.0033466	7.65e-05
313.15	20000	0.0035194	8.04e-05
313.15	30000	0.003899	8.9e-05
313.15	40000	0.0042925	9.8e-05
323.15	100	0.0023397	5.37e-05
323.15	1000	0.0023637	5.49e-05
323.15	5000	0.0024644	5.65e-05
323.14	10000	0.002592	5.94e-05
323.15	15000	0.0027247	6.24e-05
323.15	20000	0.0028674	6.56e-05
323.15	30000	0.0031569	7.22e-05
323.15	40000	0.0034745	7.94e-05
333.15	100	0.0019539	4.49e-05
333.15	1000	0.001973	4.58e-05
333.15	5000	0.0020577	4.73e-05
333.15	10000	0.0021633	4.97e-05
333.15	15000	0.0022746	5.22e-05
333.15	20000	0.0023906	5.49e-05
333.15	30000	0.0026238	6.01e-05
333.15	40000	0.002875	6.58e-05
343.15	100	0.0016582	3.83e-05
343.15	1000	0.0016728	3.89e-05
343.15	5000	0.0017443	4.02e-05
343.15	10000	0.0018349	4.23e-05
343.15	15000	0.0019283	4.44e-05
343.15	20000	0.0020191	4.64e-05
343.15	30000	0.0022159	5.09e-05
343.15	40000	0.0024204	5.55e-05
353.15	100	0.0014259	3.3e-05
353.15	1000	0.0014399	3.36e-05
353.15	5000	0.0015003	3.47e-05
353.15	10000	0.0015771	3.65e-05
353.15	15000	0.0016539	3.82e-05
353.15	20000	0.0017357	4e-05
353.15	30000	0.0018997	4.37e-05
353.15	40000	0.0020742	4.77e-05
363.15	100	0.0012417	2.89e-05
363.15	1000	0.0012532	2.92e-05
363.15	5000	0.0013059	3.04e-05
363.15	10000	0.0013714	3.18e-05
363.15	15000	0.0014391	3.34e-05
363.15	20000	0.0015079	3.49e-05
363.15	30000	0.001649	3.81e-05
363.15	40000	0.001798	4.14e-05

System: dibutyl hexanedioate; phases: Liquid
Property: Viscosity, Pa*s (Liquid); method: Vibrating wire viscometry
Temperature, K	Pressure, kPa	Viscosity, Pa*s	uncertainty
283.16	100	0.0073832	0.0001558
283.16	1000	0.0074927	0.0001581
283.17	5000	0.0078962	0.0001663
283.17	10000	0.0084066	0.0001769
283.15	15000	0.0089612	0.0001885
283.16	20000	0.0095076	0.0002
283.15	30000	0.0106209	0.0002233
283.15	40000	0.0119521	0.0002512
293.15	100	0.0054994	0.0001173
293.14	1000	0.0055658	0.000123
293.15	5000	0.0058404	0.0001231
293.15	10000	0.0061958	0.0001306
293.14	15000	0.0065851	0.0001387
293.15	20000	0.006982	0.000147
293.15	30000	0.0078076	0.0001643
293.14	40000	0.0087238	0.0001838
303.15	100	0.0042371	9e-05
303.16	1000	0.0042877	9.36e-05
303.15	5000	0.0044903	9.48e-05
303.15	10000	0.0047591	0.0001004
303.15	15000	0.0050291	0.0001061
303.15	20000	0.0053228	0.0001122
303.15	30000	0.0059327	0.000125
303.15	40000	0.0065919	0.0001389
313.15	100	0.0033753	7.15e-05
313.15	1000	0.003411	7.37e-05
313.15	5000	0.003566	7.54e-05
313.15	10000	0.0037688	7.97e-05
313.15	15000	0.0039786	8.41e-05
313.15	20000	0.0041975	8.86e-05
313.15	30000	0.0046601	9.83e-05
313.15	40000	0.0051531	0.0001087
323.16	100	0.002746	5.83e-05
323.15	1000	0.0027744	5.98e-05
323.15	5000	0.0029004	6.15e-05
323.15	10000	0.0030614	6.48e-05
323.15	15000	0.0032245	6.83e-05
323.15	20000	0.0033934	7.18e-05
323.15	30000	0.0037536	7.93e-05
323.15	40000	0.0041457	8.76e-05
333.15	100	0.0022825	4.85e-05
333.15	1000	0.002304	4.96e-05
333.15	5000	0.0024072	5.12e-05
333.14	10000	0.00254	5.39e-05
333.16	15000	0.002675	5.68e-05
333.15	20000	0.0028136	5.96e-05
333.15	30000	0.0031061	6.58e-05
333.15	40000	0.0034117	7.22e-05
343.15	100	0.0019305	4.11e-05
343.15	1000	0.0019503	4.2e-05
343.15	5000	0.0020352	4.34e-05
343.15	10000	0.0021443	4.57e-05
343.15	15000	0.0022573	4.8e-05
343.15	20000	0.0023697	5.04e-05
343.15	30000	0.0026124	5.54e-05
343.15	40000	0.0028587	6.06e-05
353.15	100	0.0016548	3.54e-05
353.15	1000	0.0016717	3.61e-05
353.15	5000	0.0017458	3.73e-05
353.15	10000	0.001839	3.93e-05
353.15	15000	0.0019335	4.13e-05
353.15	20000	0.0020312	4.33e-05
353.15	30000	0.0022303	4.74e-05
353.15	40000	0.0024379	5.18e-05
363.15	100	0.0014371	3.09e-05
363.15	1000	0.0014515	3.12e-05
363.17	5000	0.0015131	3.25e-05
363.16	10000	0.0015944	3.42e-05
363.15	15000	0.0016747	3.59e-05
363.15	20000	0.0017567	3.76e-05
363.15	30000	0.0019301	4.12e-05
363.15	40000	0.0021078	4.49e-05
