Measured thermophysical data. Viscosity of [bmim][PF6] and [bmim][BF4] at High Pressure
Source: Int. J. Thermophys., 2006, 10.1007/s10765-006-0020-y
Compound 1: 1-butyl-3-methylimidazolium tetrafluoroborate, C8H15BF4N2, InChI=1S/C8H15N2.BF4/c1-3-4-5-10-7-6-9(2)8-10;2-1(3,4)5/h6-8H,3-5H2,1-2H3;/q+1;-1
Compound 2: 1-butyl-3-methylimidazolium hexafluorophosphate, C8H15F6N2P, InChI=1S/C8H15N2.F6P/c1-3-4-5-10-7-6-9(2)8-10;1-7(2,3,4,5)6/h6-8H,3-5H2,1-2H3;/q+1;-1

System: 1-butyl-3-methylimidazolium tetrafluoroborate; phases: Liquid
Property: Viscosity, Pa*s (Liquid); method: Falling or rolling sphere viscometry
Temperature, K	Pressure, kPa	Viscosity, Pa*s	uncertainty
293.15	100	0.132	0.007
293.15	5000	0.139	0.008
293.15	10000	0.147	0.008
293.15	15000	0.155	0.009
293.15	20000	0.163	0.009
313.15	100	0.0505	0.0023
313.15	5000	0.0527	0.0024
313.15	10000	0.0551	0.0025
313.15	15000	0.0575	0.0026
313.15	20000	0.06	0.0029
333.15	100	0.0237	0.0011
333.15	5000	0.0245	0.0011
333.15	10000	0.0254	0.0011
333.15	15000	0.0263	0.0012
333.15	20000	0.0272	0.0013
353.15	100	0.0132	0.0006
353.15	5000	0.0136	0.0006
353.15	10000	0.0141	0.0006
353.15	15000	0.0146	0.0007
353.15	20000	0.015	0.0007

System: 1-butyl-3-methylimidazolium tetrafluoroborate; phases: Liquid
Property: Mass density, kg/m3 (Liquid); method: Constant-volume piezometry
Temperature, K	Pressure, kPa	Mass density, kg/m3	uncertainty
293.15	100	1211	5
293.15	5000	1213	5
293.15	10000	1215	5
293.15	15000	1217	5
293.15	20000	1219	5
313.15	100	1196	5
313.15	5000	1198	5
313.15	10000	1200	5
313.15	15000	1202	5
313.15	20000	1204	5
333.15	100	1182	5
333.15	5000	1185	5
333.15	10000	1187	5
333.15	15000	1190	5
333.15	20000	1192	5
353.15	100	1168	5
353.15	5000	1171	5
353.15	10000	1173	5
353.15	15000	1176	5
353.15	20000	1179	5

System: 1-butyl-3-methylimidazolium hexafluorophosphate; phases: Liquid
Property: Viscosity, Pa*s (Liquid); method: Falling or rolling sphere viscometry
Temperature, K	Pressure, kPa	Viscosity, Pa*s	uncertainty
293.15	100	0.382	0.029
293.15	5000	0.409	0.032
293.15	10000	0.442	0.035
293.15	15000	0.468	0.038
293.15	20000	0.504	0.042
313.15	100	0.119	0.006
313.15	5000	0.126	0.006
313.15	10000	0.133	0.007
313.15	15000	0.14	0.007
313.15	20000	0.151	0.009
333.15	100	0.0525	0.0023
333.15	5000	0.0553	0.0023
333.15	10000	0.0582	0.0025
333.15	15000	0.061	0.0026
333.15	20000	0.0632	0.0028
353.15	100	0.0257	0.0011
353.15	5000	0.0269	0.0012
353.15	10000	0.0281	0.0012
353.15	15000	0.0293	0.0013
353.15	20000	0.0305	0.0013

System: 1-butyl-3-methylimidazolium hexafluorophosphate; phases: Liquid
Property: Mass density, kg/m3 (Liquid); method: Constant-volume piezometry
Temperature, K	Pressure, kPa	Mass density, kg/m3	uncertainty
293.15	100	1370	6
293.15	5000	1372	6
293.15	10000	1374	6
293.15	15000	1377	6
293.15	20000	1379	6
313.15	100	1354	5
313.15	5000	1357	6
313.15	10000	1359	6
313.15	15000	1362	6
313.15	20000	1364	6
333.15	100	1337	5
333.15	5000	1340	5
333.15	10000	1343	5
333.15	15000	1346	5
333.15	20000	1349	5
353.15	100	1321	5
353.15	5000	1324	5
353.15	10000	1327	5
353.15	15000	1330	5
353.15	20000	1332	5
