Measured thermophysical data. Thermodynamic Properties at Saturation Derived from Experimental Two-Phase Isochoric Heat Capacity of 1-Hexyl-3-methylimidazolium bis[(trifluoromethyl)sulfonyl]imide
Source: Int. J. Thermophys., 2016, 10.1007/s10765-016-2109-2
Compound 1: 1-hexyl-3-methylimidazolium bis[(trifluoromethyl)sulfonyl]imide, C12H19F6N3O4S2, InChI=1S/C10H19N2.C2F6NO4S2/c1-3-4-5-6-7-12-9-8-11(2)10-12;3-1(4,5)14(10,11)9-15(12,13)2(6,7)8/h8-10H,3-7H2,1-2H3;/q+1;-1

System: 1-hexyl-3-methylimidazolium bis[(trifluoromethyl)sulfonyl]imide; phases: Liquid, Gas
Property: Molar heat capacity at saturation pressure, J/K/mol (Liquid); method: Vacuum adiabatic calorimetry
Temperature, K	Molar heat capacity at saturation pressure, J/K/mol	uncertainty
297.45	599.542128928	35.793559936
297.76	608.0430994128	36.6883989344
297.89	604.4637434192	36.2409794352
298.02	598.6472899296	35.793559936
298.15	596.4101924336	35.793559936
298.28	606.253421416	36.2409794352
298.41	601.779226424	36.2409794352
298.53	599.9895484272	35.793559936
298.66	603.5689044208	36.2409794352
288.87	602.2266459232	36.2409794352
288.72	599.0947094288	35.793559936
289.04	592.83083644	35.793559936
289.17	597.305031432	35.793559936
289.3	604.9111629184	36.2409794352
289.44	590.593738944	35.3461404368
289.57	596.4101924336	35.793559936
289.7	599.9895484272	35.793559936
289.83	601.779226424	36.2409794352
304.3	608.490518912	36.6883989344
304.69	603.1214849216	36.2409794352
304.82	606.7008409152	36.2409794352
304.95	612.5172944048	36.6883989344
305.08	604.4637434192	36.2409794352
305.2	610.727616408	36.6883989344
305.33	607.5956799136	36.2409794352
305.46	613.4121334032	36.6883989344
305.59	609.3853579104	36.6883989344
314.15	619.676006392	37.1358184336
314.57	615.2018114	37.1358184336
314.69	607.5956799136	36.2409794352
314.82	616.9914893968	37.1358184336
314.94	611.6224554064	36.6883989344
315.07	612.5172944048	36.6883989344
315.2	618.3337478944	37.1358184336
315.32	614.7543919008	36.6883989344
315.45	608.9379384112	36.6883989344
320.89	620.1234258912	37.1358184336
321.17	622.8079428864	37.5832379328
321.3	614.7543919008	36.6883989344
321.42	621.0182648896	37.1358184336
321.55	613.4121334032	36.6883989344
321.67	616.9914893968	37.1358184336
321.79	616.0966503984	37.1358184336
321.92	619.2285868928	37.1358184336
322.04	622.3605233872	37.1358184336
322.16	621.0182648896	37.1358184336
322.29	618.3337478944	37.1358184336
322.41	623.7027818848	37.5832379328
323.89	624.150201384	37.5832379328
324.15	620.5708453904	37.1358184336
324.28	625.4924598816	37.5832379328
324.4	627.7295573776	37.5832379328
324.52	629.0718158752	37.5832379328
324.65	621.4656843888	37.1358184336
324.77	622.8079428864	37.5832379328
324.89	617.8863283952	37.1358184336
325.02	621.0182648896	37.1358184336
325.14	625.0450403824	37.5832379328
325.24	622.3605233872	37.1358184336
325.26	623.7027818848	37.5832379328
301.64	606.7008409152	36.2409794352
301.75	608.9379384112	36.6883989344
301.88	612.5172944048	36.6883989344
302.01	606.7008409152	36.2409794352
302.13	613.4121334032	36.6883989344
302.26	605.8060019168	36.2409794352
333.63	634.4408498656	38.030657432
333.82	633.9934303664	38.030657432
333.94	626.8347183792	37.5832379328
334.06	631.7563328704	38.030657432
334.18	629.0718158752	37.5832379328
334.3	632.6511718688	38.030657432
334.42	636.6779473616	38.030657432
334.54	633.098591368	38.030657432
334.66	627.2821378784	37.5832379328
334.79	631.3089133712	38.030657432
334.91	629.9666548736	37.5832379328
339.73	638.9150448576	38.4780769312
339.83	637.1253668608	38.030657432
339.95	634.8882693648	38.030657432
340.03	643.3892398496	38.4780769312
340.15	635.7831083632	38.030657432
340.27	640.7047228544	38.4780769312
340.39	642.046981352	38.4780769312
340.51	638.4676253584	38.4780769312
344.34	641.5995618528	38.4780769312
344.46	645.6263373456	38.9254964304
344.58	642.4944008512	38.4780769312
344.7	644.7314983472	38.4780769312
344.82	639.3624643568	38.4780769312
344.93	648.3108543408	38.9254964304
345.05	647.4160153424	38.9254964304
345.17	645.1789178464	38.9254964304
345.29	638.4676253584	38.4780769312
345.41	643.8366593488	38.4780769312
348.64	645.1789178464	38.9254964304
348.76	643.8366593488	38.4780769312
348.88	648.3108543408	38.9254964304
348.99	646.9685958432	38.9254964304
349.11	649.6531128384	38.9254964304
349.23	648.75827384	38.9254964304
349.35	644.7314983472	38.4780769312
349.47	647.4160153424	38.9254964304
349.58	643.3892398496	38.4780769312
349.7	645.6263373456	38.9254964304
349.65	648.3108543408	38.9254964304
349.82	643.3892398496	38.4780769312
349.94	645.6263373456	38.9254964304
350.05	644.7314983472	38.4780769312
350.17	646.9685958432	38.9254964304
350.29	647.8634348416	38.9254964304
350.36	647.4160153424	38.9254964304

System: 1-hexyl-3-methylimidazolium bis[(trifluoromethyl)sulfonyl]imide; phases: Liquid, Gas
Property: Mass density, kg/m3 (Liquid); method: ISOCHOR
Temperature, K	Mass density, kg/m3	uncertainty
325.26	1344.14	3.28
350.36	1323.92	3.23

System: 1-hexyl-3-methylimidazolium bis[(trifluoromethyl)sulfonyl]imide; phases: Liquid
Property: Molar heat capacity at constant volume, J/K/mol (Liquid); method: Vacuum adiabatic calorimetry
Temperature, K	Mass density, kg/m3	Molar heat capacity at constant volume, J/K/mol	uncertainty
325.26	1344.14	609.3853579104	36.6883989344
325.39	1344.14	608.490518912	36.6883989344
325.51	1344.14	608.9379384112	36.6883989344
325.63	1344.14	608.490518912	36.6883989344
325.75	1344.14	609.8327774096	36.6883989344
325.88	1344.14	608.9379384112	36.6883989344
326	1344.14	608.0430994128	36.6883989344
326.13	1344.14	606.7008409152	36.2409794352
326.26	1344.14	608.490518912	36.6883989344
328.58	1344.14	609.8327774096	36.6883989344
328.7	1344.14	608.490518912	36.6883989344
328.82	1344.14	607.5956799136	36.2409794352
328.94	1344.14	606.253421416	36.2409794352
329.07	1344.14	607.1482604144	36.2409794352
329.19	1344.14	609.3853579104	36.6883989344
329.31	1344.14	609.8327774096	36.6883989344
329.43	1344.14	605.3585824176	36.2409794352
333.09	1344.14	612.0698749056	36.6883989344
333.21	1344.14	606.253421416	36.2409794352
333.33	1344.14	609.3853579104	36.6883989344
333.45	1344.14	613.8595529024	36.6883989344
333.57	1344.14	607.5956799136	36.2409794352
333.7	1344.14	610.727616408	36.6883989344
333.82	1344.14	613.4121334032	36.6883989344
333.94	1344.14	609.8327774096	36.6883989344
341.28	1344.14	615.2018114	37.1358184336
341.4	1344.14	610.727616408	36.6883989344
341.52	1344.14	617.438908896	37.1358184336
341.64	1344.14	612.964713904	36.6883989344
341.76	1344.14	620.1234258912	37.1358184336
341.88	1344.14	615.6492308992	37.1358184336
342	1344.14	614.7543919008	36.6883989344
342.12	1344.14	618.7811673936	37.1358184336
348.64	1344.14	619.2285868928	37.1358184336
348.76	1344.14	617.8863283952	37.1358184336
348.88	1344.14	621.913103888	37.1358184336
348.99	1344.14	620.1234258912	37.1358184336
349.11	1344.14	618.7811673936	37.1358184336
349.23	1344.14	623.7027818848	37.5832379328
349.35	1344.14	617.438908896	37.1358184336
349.47	1344.14	622.8079428864	37.5832379328
349.58	1344.14	619.676006392	37.1358184336
350.36	1323.92	625.0450403824	37.5832379328
350.41	1323.92	624.150201384	37.5832379328
350.53	1323.92	623.2553623856	37.5832379328
350.64	1323.92	622.3605233872	37.1358184336
350.76	1323.92	625.4924598816	37.5832379328
350.88	1323.92	624.5976208832	37.5832379328
350.99	1323.92	621.0182648896	37.1358184336
351.11	1323.92	621.913103888	37.1358184336
351.23	1323.92	623.2553623856	37.5832379328
351.35	1323.92	620.1234258912	37.1358184336
351.46	1323.92	621.0182648896	37.1358184336
351.58	1323.92	622.3605233872	37.1358184336
351.7	1323.92	620.5708453904	37.1358184336
351.82	1323.92	621.4656843888	37.1358184336
351.93	1323.92	619.676006392	37.1358184336
352.03	1323.92	621.4656843888	37.1358184336
360.03	1323.92	626.38729888	37.5832379328
360.19	1323.92	624.150201384	37.5832379328
360.3	1323.92	628.1769768768	37.5832379328
360.42	1323.92	622.8079428864	37.5832379328
360.53	1323.92	625.0450403824	37.5832379328
360.65	1323.92	622.3605233872	37.1358184336
360.76	1323.92	623.2553623856	37.5832379328
360.88	1323.92	621.0182648896	37.1358184336
360.99	1323.92	621.4656843888	37.1358184336
361.11	1323.92	622.8079428864	37.5832379328
361.22	1323.92	620.5708453904	37.1358184336
361.34	1323.92	627.2821378784	37.5832379328
365.26	1323.92	624.150201384	37.5832379328
365.35	1323.92	629.5192353744	37.5832379328
365.47	1323.92	627.2821378784	37.5832379328
365.58	1323.92	625.4924598816	37.5832379328
365.69	1323.92	632.6511718688	38.030657432
365.81	1323.92	622.3605233872	37.1358184336
365.92	1323.92	629.0718158752	37.5832379328
366.04	1323.92	627.2821378784	37.5832379328
366.15	1323.92	630.4140743728	38.030657432
366.27	1323.92	623.7027818848	37.5832379328
366.38	1323.92	629.9666548736	37.5832379328
372.87	1323.92	635.7831083632	38.030657432
372.96	1323.92	634.4408498656	38.030657432
373.07	1323.92	631.7563328704	38.030657432
373.18	1323.92	633.098591368	38.030657432
373.29	1323.92	636.6779473616	38.030657432
373.41	1323.92	629.0718158752	37.5832379328
373.52	1323.92	634.8882693648	38.030657432
373.63	1323.92	629.9666548736	37.5832379328
373.74	1323.92	631.3089133712	38.030657432
373.86	1323.92	638.0202058592	38.4780769312
373.97	1323.92	636.6779473616	38.030657432
374.08	1323.92	638.9150448576	38.4780769312
