Measured thermophysical data. Transfer Partial Molar Isentropic Compressibilities of (l-Alanine/l-Glutamine/Glycylglycine) from Water to 0.512 mol*kg -1   mol*kg-1 Aqueous KNO3 /0.512mol*kg-1 KNO3/0.512 mol*kg-1 Aqueous K2SO4 Solutions Between 298.15 K and 323.15 K
Source: Int. J. Thermophys., 2013, 10.1007/s10765-013-1432-0
Compound 1: (S)-2-aminopropanoic acid, C3H7NO2, InChI=1S/C3H7NO2/c1-2(4)3(5)6/h2H,4H2,1H3,(H,5,6)/t2-/m0/s1, purity 99%
Compound 2: water, H2O, InChI=1S/H2O/h1H2, purity 99.8%
Compound 3: potassium sulfate, K2O4S, InChI=1S/2K.H2O4S/c;;1-5(2,3)4/h;;(H2,1,2,3,4)/q2*+1;/p-2, purity 98%
Compound 4: potassium nitrate, KNO3, InChI=1S/K.NO3/c;2-1(3)4/q+1;-1, purity 98%
Compound 5: L-glutamine, C5H10N2O3, InChI=1S/C5H10N2O3/c6-3(5(9)10)1-2-4(7)8/h3H,1-2,6H2,(H2,7,8)(H,9,10)/t3-/m0/s1, purity 99%
Compound 6: glycylglycine, C4H8N2O3, InChI=1S/C4H8N2O3/c5-1-3(7)6-2-4(8)9/h1-2,5H2,(H,6,7)(H,8,9), purity 99%

System: (S)-2-aminopropanoic acid + water + potassium sulfate; phases: Liquid
Fixed: Pressure, kPa = 101
Fixed: Solvent: Molality, mol/kg of potassium sulfate = 0.512
Property: Speed of sound, m/s (Liquid); method: Linear variable-path acoustic interferometer
Molality, mol/kg of (S)-2-aminopropanoic acid	Temperature, K	Speed of sound, m/s	uncertainty
0	298.15	1563.6	2.1
0.1901	298.15	1575.7	2.1
0.3847	298.15	1587.3	2.1
0.5849	298.15	1599.7	2.1
0.7905	298.15	1612.5	2.1
1.0017	298.15	1624.3	2.1
1.2185	298.15	1634.6	2.1
0	303.15	1571.6	2.1
0.1901	303.15	1583.8	2.1
0.3847	303.15	1596.2	2.1
0.5849	303.15	1608.2	2.1
0.7905	303.15	1619.6	2.1
1.0017	303.15	1630.9	2.1
1.2185	303.15	1641.4	2.1
0	308.15	1580.3	2.1
0.1901	308.15	1591.9	2.1
0.3847	308.15	1603.9	2.1
0.5849	308.15	1615.8	2.1
0.7905	308.15	1626.3	2.1
1.0017	308.15	1636.8	2.1
1.2185	308.15	1647.8	2.1
0	313.15	1587.6	2.1
0.1901	313.15	1599.8	2.1
0.3847	313.15	1610.41	2.09
0.5849	313.15	1621.9	2.1
0.7905	313.15	1632.3	2.1
1.0017	313.15	1642.4	2.1
1.2185	313.15	1652.8	2.1
0	318.15	1593.5	2.1
0.1901	318.15	1605.4	2.1
0.3847	318.15	1615.7	2.1
0.5849	318.15	1626.9	2.1
0.7905	318.15	1637.3	2.1
1.0017	318.15	1647.8	2.1
1.2185	318.15	1658.7	2.1
0	323.15	1598.3	2.1
0.1901	323.15	1609.8	2.1
0.3847	323.15	1621.8	2.1
0.5849	323.15	1632.8	2.1
0.7905	323.15	1642.9	2.1
1.0017	323.15	1653.1	2.1
1.2185	323.15	1662.9	2.1

System: (S)-2-aminopropanoic acid + water + potassium nitrate; phases: Liquid
Fixed: Pressure, kPa = 101
Fixed: Solvent: Molality, mol/kg of potassium nitrate = 0.512
Property: Speed of sound, m/s (Liquid); method: Linear variable-path acoustic interferometer
Molality, mol/kg of (S)-2-aminopropanoic acid	Temperature, K	Speed of sound, m/s	uncertainty
0	298.15	1517.8	2.1
0.1971	298.15	1530.3	2.1
0.4038	298.15	1541.5	2.1
0.6157	298.15	1553.1	2.1
0.8362	298.15	1564.9	2.1
1.0658	298.15	1576.4	2.1
1.3028	298.15	1586.3	2.1
0	303.15	1526.8	2.1
0.1971	303.15	1538.8	2.1
0.4038	303.15	1550.4	2.1
0.6157	303.15	1561.9	2.1
0.8362	303.15	1573.4	2.1
1.0658	303.15	1584.5	2.1
1.3028	303.15	1595.1	2.1
0	308.15	1536.3	2.1
0.1971	308.15	1547.6	2.1
0.4038	308.15	1558.7	2.1
0.6157	308.15	1570.1	2.1
0.8362	308.15	1581.4	2.1
1.0658	308.15	1592.6	2.1
1.3028	308.15	1602.8	2.1
0	313.15	1544.4	2.1
0.1971	313.15	1556.1	2.1
0.4038	313.15	1566.9	2.1
0.6157	313.15	1578.4	2.1
0.8362	313.15	1589.7	2.1
1.0658	313.15	1599.4	2.1
1.3028	313.15	1609.9	2.1
0	318.15	1551.1	2.1
0.1971	318.15	1563.3	2.1
0.4038	318.15	1574.1	2.1
0.6157	318.15	1584.8	2.1
0.8362	318.15	1595.6	2.1
1.0658	318.15	1605.9	2.1
1.3028	318.15	1616.4	2.1
0	323.15	1556.6	2.1
0.1971	323.15	1570.6	2.1
0.4038	323.15	1581.8	2.1
0.6157	323.15	1592.1	2.1
0.8362	323.15	1601.9	2.1
1.0658	323.15	1612.2	2.1
1.3028	323.15	1622.4	2.1

System: L-glutamine + water + potassium sulfate; phases: Liquid
Fixed: Pressure, kPa = 101
Fixed: Solvent: Molality, mol/kg of potassium sulfate = 0.512
Property: Speed of sound, m/s (Liquid); method: Linear variable-path acoustic interferometer
Molality, mol/kg of L-glutamine	Temperature, K	Speed of sound, m/s	uncertainty
0	298.15	1563.6	2.1
0.0472	298.15	1567.7	2.1
0.095	298.15	1571.6	2.1
0.1429	298.15	1575.7	2.1
0.1918	298.15	1579.2	2.1
0.2408	298.15	1582.8	2.1
0.2903	298.15	1586.7	2.1
0	303.15	1571.6	2.1
0.0472	303.15	1575.9	2.1
0.095	303.15	1579.8	2.1
0.1429	303.15	1583.4	2.1
0.1918	303.15	1587.5	2.1
0.2408	303.15	1591.5	2.1
0.2903	303.15	1595.7	2.1
0	308.15	1580.3	2.1
0.0472	308.15	1584.5	2.1
0.095	308.15	1588.1	2.1
0.1429	308.15	1591.9	2.1
0.1918	308.15	1595.5	2.1
0.2408	308.15	1599.3	2.1
0.2903	308.15	1603.5	2.1
0	313.15	1587.6	2.1
0.0472	313.15	1591.6	2.1
0.095	313.15	1595.6	2.1
0.1429	313.15	1598.5	2.1
0.1918	313.15	1602.2	2.1
0.2408	313.15	1606.1	2.1
0.2903	313.15	1609.5	2.1
0	318.15	1593.5	2.1
0.0472	318.15	1597.4	2.1
0.095	318.15	1600.8	2.1
0.1429	318.15	1603.9	2.1
0.1918	318.15	1607.7	2.1
0.2408	318.15	1611.4	2.1
0.2903	318.15	1614.6	2.1
0	323.15	1598.3	2.1
0.0472	323.15	1602.5	2.1
0.095	323.15	1606.1	2.1
0.1429	323.15	1609.6	2.1
0.1918	323.15	1613.3	2.1
0.2408	323.15	1616.8	2.1
0.2903	323.15	1620.1	2.1

System: L-glutamine + water + potassium nitrate; phases: Liquid
Fixed: Pressure, kPa = 101
Fixed: Solvent: Molality, mol/kg of potassium nitrate = 0.512
Property: Speed of sound, m/s (Liquid); method: Linear variable-path acoustic interferometer
Molality, mol/kg of L-glutamine	Temperature, K	Speed of sound, m/s	uncertainty
0	298.15	1517.8	2.1
0.0481	298.15	1520.9	2.1
0.0987	298.15	1523.9	2.1
0.1499	298.15	1527.8	2.1
0.2002	298.15	1530.6	2.1
0.2521	298.15	1533.8	2.1
0.3048	298.15	1537.3	2.1
0	303.15	1526.8	2.1
0.0481	303.15	1529.6	2.1
0.0987	303.15	1532.5	2.1
0.1499	303.15	1535.4	2.1
0.2002	303.15	1538.8	2.1
0.2521	303.15	1542.3	2.1
0.3048	303.15	1545.6	2.1
0	308.15	1536.3	2.1
0.0481	308.15	1538.8	2.1
0.0987	308.15	1541.6	2.1
0.1499	308.15	1544.5	2.1
0.2002	308.15	1547.3	2.1
0.2521	308.15	1550.1	2.1
0.3048	308.15	1553.1	2.1
0	313.15	1544.4	2.1
0.0481	313.15	1546.7	2.1
0.0987	313.15	1549.4	2.1
0.1499	313.15	1552.2	2.1
0.2002	313.15	1554.7	2.1
0.2521	313.15	1557.7	2.1
0.3048	313.15	1560.2	2.1
0	318.15	1551.1	2.1
0.0481	318.15	1553.2	2.1
0.0987	318.15	1555.7	2.1
0.1499	318.15	1558.6	2.1
0.2002	318.15	1561.6	2.1
0.2521	318.15	1564.6	2.1
0.3048	318.15	1567.6	2.1
0	323.15	1556.6	2.1
0.0481	323.15	1558.6	2.1
0.0987	323.15	1561.2	2.1
0.1499	323.15	1564.4	2.1
0.2002	323.15	1567.5	2.1
0.2521	323.15	1570.2	2.1
0.3048	323.15	1573.7	2.1

System: glycylglycine + water + potassium sulfate; phases: Liquid
Fixed: Pressure, kPa = 101
Fixed: Solvent: Molality, mol/kg of potassium sulfate = 0.512
Property: Speed of sound, m/s (Liquid); method: Linear variable-path acoustic interferometer
Molality, mol/kg of glycylglycine	Temperature, K	Speed of sound, m/s	uncertainty
0	298.15	1563.6	2.1
0.1911	298.15	1575.8	2.1
0.3887	298.15	1590.4	2.1
0.5932	298.15	1604.4	2.1
0.8038	298.15	1617.7	2.1
1.0178	298.15	1629.9	2.1
1.2586	298.15	1641.2	2.1
0	303.15	1571.6	2.1
0.1911	303.15	1585.5	2.1
0.3887	303.15	1599.6	2.1
0.5932	303.15	1613.1	2.1
0.8038	303.15	1626.1	2.1
1.0178	303.15	1637.8	2.1
1.2586	303.15	1648.9	2.1
0	308.15	1580.3	2.1
0.1911	308.15	1593.7	2.1
0.3887	308.15	1607.5	2.1
0.5932	308.15	1620.5	2.1
0.8038	308.15	1632.4	2.1
1.0178	308.15	1644.4	2.1
1.2586	308.15	1655.4	2.1
0	313.15	1587.6	2.1
0.1911	313.15	1600.7	2.1
0.3887	313.15	1614.4	2.1
0.5932	313.15	1628.7	2.1
0.8038	313.15	1640.8	2.1
1.0178	313.15	1652.2	2.1
1.2586	313.15	1663.1	2.1
0	318.15	1593.5	2.1
0.1911	318.15	1606.3	2.1
0.3887	318.15	1619.4	2.1
0.5932	318.15	1633.7	2.1
0.8038	318.15	1646.5	2.1
1.0178	318.15	1658.2	2.1
1.2586	318.15	1668.8	2.1
0	323.15	1598.3	2.1
0.1911	323.15	1612.8	2.1
0.3887	323.15	1625.6	2.1
0.5932	323.15	1639.8	2.1
0.8038	323.15	1652	2.1
1.0178	323.15	1664.7	2.1
1.2586	323.15	1675.7	2.1

System: glycylglycine + water + potassium nitrate; phases: Liquid
Fixed: Pressure, kPa = 101
Fixed: Solvent: Molality, mol/kg of potassium nitrate = 0.512
Property: Speed of sound, m/s (Liquid); method: Linear variable-path acoustic interferometer
Molality, mol/kg of glycylglycine	Temperature, K	Speed of sound, m/s	uncertainty
0	298.15	1517.8	2.1
0.1997	298.15	1528.8	2.1
0.4102	298.15	1540.9	2.1
0.6324	298.15	1552.8	2.1
0.8674	298.15	1565	2.1
1.1162	298.15	1578.3	2.1
1.3801	298.15	1592.7	2.1
0	303.15	1526.8	2.1
0.1997	303.15	1537.2	2.1
0.4102	303.15	1549.5	2.1
0.6324	303.15	1560.9	2.1
0.8674	303.15	1574.4	2.1
1.1162	303.15	1587.4	2.1
1.3801	303.15	1600.5	2.1
0	308.15	1536.3	2.1
0.1997	308.15	1546.1	2.1
0.4102	308.15	1557.6	2.1
0.6324	308.15	1570.3	2.1
0.8674	308.15	1583.7	2.1
1.1162	308.15	1596.4	2.1
1.3801	308.15	1610.7	2.1
0	313.15	1544.4	2.1
0.1997	313.15	1554.1	2.1
0.4102	313.15	1565.6	2.1
0.6324	313.15	1578.1	2.1
0.8674	313.15	1592.3	2.1
1.1162	313.15	1605.6	2.1
1.3801	313.15	1619.6	2.1
0	318.15	1551.1	2.1
0.1997	318.15	1562.4	2.1
0.4102	318.15	1573.5	2.1
0.6324	318.15	1585.6	2.1
0.8674	318.15	1599.6	2.1
1.1162	318.15	1612.9	2.1
1.3801	318.15	1628.1	2.1
0	323.15	1556.6	2.1
0.1997	323.15	1569.6	2.1
0.4102	323.15	1580.8	2.1
0.6324	323.15	1592.9	2.1
0.8674	323.15	1607.9	2.1
1.1162	323.15	1621.2	2.1
1.3801	323.15	1636.6	2.1

System: water + potassium sulfate; phases: Liquid
Fixed: Pressure, kPa = 101
Fixed: Molality, mol/kg of potassium sulfate = 0.512
Property: Speed of sound, m/s (Liquid); method: Linear variable-path acoustic interferometer
Temperature, K	Speed of sound, m/s	uncertainty
298.15	1563.6	1.9
303.15	1571.6	1.8
308.15	1580.3	1.8
313.15	1587.6	1.8
318.15	1593.5	1.8
323.15	1598.3	1.9

System: water + potassium nitrate; phases: Liquid
Fixed: Pressure, kPa = 101
Fixed: Molality, mol/kg of potassium nitrate = 0.512
Property: Speed of sound, m/s (Liquid); method: Linear variable-path acoustic interferometer
Temperature, K	Speed of sound, m/s	uncertainty
298.15	1517.8	1.8
303.15	1526.8	1.8
308.15	1536.3	1.8
313.15	1544.4	1.8
318.15	1551.1	1.8
323.15	1556.6	1.9
