Measured thermophysical data. Viscosity of Gaseous Mixtures of HFC-125 + Propane from 298.15 to 423.15K at Pressures to 6.7MPa
Source: Int. J. Thermophys., 2006, 10.1007/s10765-006-0051-4
Compound 1: propane, C3H8, InChI=1S/C3H8/c1-3-2/h3H2,1-2H3, purity 99.9%
Compound 2: pentafluoroethane, C2HF5, InChI=1S/C2HF5/c3-1(4)2(5,6)7/h1H, purity 99.9%

System: propane + pentafluoroethane; phases: Gas
Property: Viscosity, Pa*s (Gas); method: Oscillating disk viscometry
Mole fraction of pentafluoroethane	Temperature, K	Pressure, kPa	Viscosity, Pa*s	uncertainty
0.5011	298.15	102	1.1222e-05	4.16e-07
0.5011	298.15	198.2	1.1211e-05	4.15e-07
0.5011	298.15	302.6	1.1207e-05	4.15e-07
0.5011	298.15	396.1	1.1233e-05	4.16e-07
0.5011	298.15	499.4	1.1234e-05	4.16e-07
0.5011	298.15	591.1	1.1237e-05	4.16e-07
0.5011	298.15	687.4	1.1247e-05	4.16e-07
0.5011	298.15	789	1.1276e-05	4.17e-07
0.5011	298.15	928.2	1.1314e-05	4.18e-07
0.5011	298.15	1025.1	1.1384e-05	4.19e-07
0.5011	323.15	101.8	1.2143e-05	4.37e-07
0.5011	323.15	213.9	1.2129e-05	4.37e-07
0.5011	323.15	395.8	1.2152e-05	4.37e-07
0.5011	323.15	592.8	1.2188e-05	4.38e-07
0.5011	323.15	788.9	1.2248e-05	4.4e-07
0.5011	323.15	983.8	1.2278e-05	4.4e-07
0.5011	323.15	1181.8	1.2412e-05	4.43e-07
0.5011	323.15	1374.9	1.255e-05	4.47e-07
0.5011	323.15	1667.7	1.2719e-05	4.5e-07
0.5011	323.15	1862.6	1.2894e-05	4.55e-07
0.5011	323.15	1985.7	1.3e-05	4.57e-07
0.5011	323.15	2071.4	1.3144e-05	4.6e-07
0.5011	348.15	101.1	1.2952e-05	4.56e-07
0.5011	348.15	198.4	1.299e-05	4.57e-07
0.5011	348.15	305.5	1.2968e-05	4.56e-07
0.5011	348.15	401.6	1.2958e-05	4.56e-07
0.5011	348.15	592.5	1.3065e-05	4.59e-07
0.5011	348.15	784.8	1.316e-05	4.61e-07
0.5011	348.15	986	1.3183e-05	4.61e-07
0.5011	348.15	1178.4	1.3258e-05	4.63e-07
0.5011	348.15	1374.6	1.3354e-05	4.65e-07
0.5011	348.15	1571.2	1.3497e-05	4.69e-07
0.5011	348.15	1772.3	1.3618e-05	4.71e-07
0.5011	348.15	1960.9	1.374e-05	4.74e-07
0.5011	348.15	2139.9	1.3865e-05	4.77e-07
0.5011	348.15	2297.9	1.4035e-05	4.81e-07
0.5011	348.15	2501	1.4304e-05	4.87e-07
0.5011	348.15	2695.6	1.4509e-05	4.92e-07
0.5011	348.15	2932.5	1.4936e-05	5.02e-07
0.5011	348.15	3111.7	1.5236e-05	5.09e-07
0.5011	373.15	101.5	1.3759e-05	4.75e-07
0.5011	373.15	225.5	1.3809e-05	4.76e-07
0.5011	373.15	397.7	1.3827e-05	4.76e-07
0.5011	373.15	585.6	1.3862e-05	4.77e-07
0.5011	373.15	781.4	1.3926e-05	4.79e-07
0.5011	373.15	980.5	1.401e-05	4.8e-07
0.5011	373.15	1174.2	1.4067e-05	4.82e-07
0.5011	373.15	1370.5	1.4133e-05	4.83e-07
0.5011	373.15	1560.4	1.4223e-05	4.85e-07
0.5011	373.15	1753.9	1.4335e-05	4.88e-07
0.5011	373.15	1949.4	1.4473e-05	4.91e-07
0.5011	373.15	2125.3	1.4576e-05	4.94e-07
0.5011	373.15	2318.9	1.4686e-05	4.96e-07
0.5011	373.15	2508.1	1.4872e-05	5.01e-07
0.5011	373.15	2708.4	1.508e-05	5.05e-07
0.5011	373.15	2961.4	1.5357e-05	5.12e-07
0.5011	373.15	3217	1.5675e-05	5.19e-07
0.5011	373.15	3429.9	1.5927e-05	5.25e-07
0.5011	373.15	3613.1	1.6242e-05	5.32e-07
0.5011	373.15	3737.3	1.6418e-05	5.36e-07
0.5011	373.15	3960.9	1.6852e-05	5.47e-07
0.5011	373.15	4171.6	1.7303e-05	5.57e-07
0.5011	373.15	4377	1.7773e-05	5.68e-07
0.5011	373.15	4576.1	1.833e-05	5.81e-07
0.5011	373.15	4760.3	1.8886e-05	5.94e-07
0.5011	373.15	4878.3	1.9315e-05	6.04e-07
0.5011	398.15	101.4	1.4474e-05	4.91e-07
0.5011	398.15	200.6	1.4541e-05	4.93e-07
0.5011	398.15	348.4	1.457e-05	4.93e-07
0.5011	398.15	541	1.4632e-05	4.95e-07
0.5011	398.15	783.2	1.4669e-05	4.96e-07
0.5011	398.15	1028.7	1.4793e-05	4.99e-07
0.5011	398.15	1272.7	1.4881e-05	5.01e-07
0.5011	398.15	1520	1.4968e-05	5.03e-07
0.5011	398.15	1748.1	1.5111e-05	5.06e-07
0.5011	398.15	2037	1.5212e-05	5.08e-07
0.5011	398.15	2274.1	1.5398e-05	5.13e-07
0.5011	398.15	2490.3	1.5479e-05	5.15e-07
0.5011	398.15	2777.4	1.5684e-05	5.19e-07
0.5011	398.15	3059.7	1.5923e-05	5.25e-07
0.5011	398.15	3336.8	1.626e-05	5.33e-07
0.5011	398.15	3609.9	1.6503e-05	5.38e-07
0.5011	398.15	3842.8	1.6806e-05	5.45e-07
0.5011	398.15	4062.4	1.7052e-05	5.51e-07
0.5011	398.15	4329.6	1.7439e-05	5.6e-07
0.5011	398.15	4652.3	1.7924e-05	5.71e-07
0.5011	398.15	5014.1	1.8531e-05	5.86e-07
0.5011	398.15	5179.6	1.8849e-05	5.93e-07
0.5011	398.15	5374.2	1.9345e-05	6.04e-07
0.5011	423.15	101.3	1.5247e-05	5.09e-07
0.5011	423.15	200.5	1.5313e-05	5.11e-07
0.5011	423.15	390.6	1.5373e-05	5.12e-07
0.5011	423.15	586.2	1.5369e-05	5.12e-07
0.5011	423.15	781.9	1.543e-05	5.13e-07
0.5011	423.15	960.2	1.5422e-05	5.13e-07
0.5011	423.15	1175.7	1.5522e-05	5.16e-07
0.5011	423.15	1421.7	1.5648e-05	5.19e-07
0.5011	423.15	1658.8	1.5726e-05	5.2e-07
0.5011	423.15	1898.5	1.5844e-05	5.23e-07
0.5011	423.15	2142.2	1.5977e-05	5.26e-07
0.5011	423.15	2381.7	1.6125e-05	5.3e-07
0.5011	423.15	2575.8	1.6229e-05	5.32e-07
0.5011	423.15	2903.1	1.6431e-05	5.37e-07
0.5011	423.15	3148.8	1.663e-05	5.41e-07
0.5011	423.15	3412.8	1.6851e-05	5.47e-07
0.5011	423.15	3651.4	1.7049e-05	5.51e-07
0.5011	423.15	3903.9	1.729e-05	5.57e-07
0.5011	423.15	4138.6	1.7558e-05	5.63e-07
0.5011	423.15	4533.7	1.7922e-05	5.71e-07
0.5011	423.15	4822.7	1.8227e-05	5.78e-07
0.5011	423.15	5073.7	1.8578e-05	5.87e-07
0.5011	423.15	5357.3	1.8972e-05	5.96e-07
0.5011	423.15	5701.1	1.9473e-05	6.07e-07
0.5011	423.15	6049.1	1.9999e-05	6.2e-07
0.5011	423.15	6270.6	2.0381e-05	6.29e-07
0.5011	423.15	6494.5	2.0797e-05	6.38e-07
0.5011	423.15	6710.2	2.1291e-05	6.5e-07
0.7503	298.15	101.2	1.2194e-05	4.38e-07
0.7503	298.15	197.9	1.223e-05	4.39e-07
0.7503	298.15	294.6	1.2208e-05	4.39e-07
0.7503	298.15	391.5	1.2217e-05	4.39e-07
0.7503	298.15	492.3	1.2229e-05	4.39e-07
0.7503	298.15	589.1	1.2246e-05	4.39e-07
0.7503	298.15	689	1.2287e-05	4.4e-07
0.7503	298.15	803.5	1.2287e-05	4.4e-07
0.7503	298.15	913.4	1.2346e-05	4.42e-07
0.7503	298.15	1012.4	1.248e-05	4.45e-07
0.7503	298.15	1231.3	1.2573e-05	4.47e-07
0.7503	323.15	102.2	1.3191e-05	4.61e-07
0.7503	323.15	199	1.3168e-05	4.61e-07
0.7503	323.15	294.9	1.32e-05	4.62e-07
0.7503	323.15	391.1	1.3212e-05	4.62e-07
0.7503	323.15	519.4	1.3225e-05	4.62e-07
0.7503	323.15	636.3	1.3249e-05	4.63e-07
0.7503	323.15	766.4	1.3262e-05	4.63e-07
0.7503	323.15	883.2	1.3339e-05	4.65e-07
0.7503	323.15	1005.1	1.3394e-05	4.66e-07
0.7503	323.15	1125.1	1.346e-05	4.68e-07
0.7503	323.15	1249.7	1.3514e-05	4.69e-07
0.7503	323.15	1371.2	1.3612e-05	4.71e-07
0.7503	323.15	1486.3	1.3675e-05	4.73e-07
0.7503	323.15	1618.9	1.3788e-05	4.75e-07
0.7503	323.15	1736.1	1.3874e-05	4.77e-07
0.7503	323.15	1864.4	1.4039e-05	4.81e-07
0.7503	323.15	1992.1	1.4201e-05	4.85e-07
0.7503	323.15	2101.6	1.4352e-05	4.88e-07
0.7503	323.15	2211.6	1.452e-05	4.92e-07
0.7503	323.15	2349.2	1.4823e-05	4.99e-07
0.7503	348.15	101.4	1.4089e-05	4.82e-07
0.7503	348.15	199.7	1.4072e-05	4.82e-07
0.7503	348.15	388.2	1.4164e-05	4.84e-07
0.7503	348.15	588.6	1.4242e-05	4.86e-07
0.7503	348.15	750.8	1.4268e-05	4.86e-07
0.7503	348.15	978.4	1.4324e-05	4.88e-07
0.7503	348.15	1173.8	1.4427e-05	4.9e-07
0.7503	348.15	1374.7	1.4554e-05	4.93e-07
0.7503	348.15	1565.7	1.4676e-05	4.96e-07
0.7503	348.15	1770.2	1.4824e-05	4.99e-07
0.7503	348.15	1963.9	1.4985e-05	5.03e-07
0.7503	348.15	2130.4	1.5108e-05	5.06e-07
0.7503	348.15	2335.5	1.5377e-05	5.12e-07
0.7503	348.15	2492.4	1.5547e-05	5.16e-07
0.7503	348.15	2660.6	1.5834e-05	5.23e-07
0.7503	348.15	2804.7	1.6044e-05	5.28e-07
0.7503	348.15	2928.8	1.6289e-05	5.33e-07
0.7503	348.15	3079.4	1.6661e-05	5.42e-07
0.7503	348.15	3230.6	1.6972e-05	5.49e-07
0.7503	348.15	3383.2	1.7395e-05	5.59e-07
0.7503	373.15	101	1.5052e-05	5.05e-07
0.7503	373.15	220	1.5058e-05	5.05e-07
0.7503	373.15	389.7	1.5102e-05	5.06e-07
0.7503	373.15	637.7	1.5153e-05	5.07e-07
0.7503	373.15	877.8	1.5253e-05	5.09e-07
0.7503	373.15	1141.8	1.5374e-05	5.12e-07
0.7503	373.15	1477.4	1.5518e-05	5.16e-07
0.7503	373.15	1717	1.5656e-05	5.19e-07
0.7503	373.15	1961.1	1.5828e-05	5.23e-07
0.7503	373.15	2185.2	1.6051e-05	5.28e-07
0.7503	373.15	2415.9	1.6227e-05	5.32e-07
0.7503	373.15	2631.2	1.6406e-05	5.36e-07
0.7503	373.15	2950.3	1.6789e-05	5.45e-07
0.7503	373.15	3209.9	1.7136e-05	5.53e-07
0.7503	373.15	3421.2	1.7485e-05	5.61e-07
0.7503	373.15	3684.6	1.7979e-05	5.73e-07
0.7503	373.15	3969.4	1.8553e-05	5.86e-07
0.7503	373.15	4227.4	1.9131e-05	5.99e-07
0.7503	373.15	4411	1.9643e-05	6.11e-07
0.7503	373.15	4607.7	2.0195e-05	6.24e-07
0.7503	373.15	4816.2	2.0916e-05	6.41e-07
0.7503	373.15	5001.8	2.1695e-05	6.59e-07
0.7503	373.15	5157.2	2.2287e-05	6.73e-07
0.7503	373.15	5305.9	2.3051e-05	6.91e-07
0.7503	398.15	101.8	1.5886e-05	5.24e-07
0.7503	398.15	262.5	1.5938e-05	5.25e-07
0.7503	398.15	488.6	1.6018e-05	5.27e-07
0.7503	398.15	733.4	1.6057e-05	5.28e-07
0.7503	398.15	977	1.6154e-05	5.3e-07
0.7503	398.15	1218.3	1.6222e-05	5.32e-07
0.7503	398.15	1476.6	1.6355e-05	5.35e-07
0.7503	398.15	1712.5	1.6471e-05	5.38e-07
0.7503	398.15	1944.3	1.6662e-05	5.42e-07
0.7503	398.15	2176.8	1.6724e-05	5.44e-07
0.7503	398.15	2388.9	1.6936e-05	5.48e-07
0.7503	398.15	2622.4	1.7152e-05	5.53e-07
0.7503	398.15	2888.9	1.7342e-05	5.58e-07
0.7503	398.15	3178.3	1.7649e-05	5.65e-07
0.7503	398.15	3405.7	1.7939e-05	5.72e-07
0.7503	398.15	3624.9	1.8167e-05	5.77e-07
0.7503	398.15	3822.7	1.8439e-05	5.83e-07
0.7503	398.15	3992.9	1.8677e-05	5.89e-07
0.7503	398.15	4225.4	1.9021e-05	5.97e-07
0.7503	398.15	4523.9	1.9467e-05	6.07e-07
0.7503	398.15	4690.7	1.9835e-05	6.16e-07
0.7503	398.15	4804.6	2.002e-05	6.2e-07
0.7503	398.15	5040.9	2.0512e-05	6.32e-07
0.7503	398.15	5224.5	2.0868e-05	6.4e-07
0.7503	398.15	5462.4	2.15e-05	6.55e-07
0.7503	398.15	5801.5	2.2396e-05	6.75e-07
0.7503	423.15	102.4	1.6711e-05	5.43e-07
0.7503	423.15	194.6	1.6721e-05	5.43e-07
0.7503	423.15	336.4	1.6761e-05	5.44e-07
0.7503	423.15	570.1	1.6825e-05	5.46e-07
0.7503	423.15	812.9	1.692e-05	5.48e-07
0.7503	423.15	1055.8	1.6956e-05	5.49e-07
0.7503	423.15	1254.9	1.7063e-05	5.51e-07
0.7503	423.15	1448.9	1.7152e-05	5.53e-07
0.7503	423.15	1640	1.7239e-05	5.56e-07
0.7503	423.15	1906.4	1.7399e-05	5.59e-07
0.7503	423.15	2128.2	1.7518e-05	5.62e-07
0.7503	423.15	2375.9	1.7663e-05	5.65e-07
0.7503	423.15	2591.5	1.7807e-05	5.69e-07
0.7503	423.15	2919.3	1.8076e-05	5.75e-07
0.7503	423.15	3160.1	1.8242e-05	5.79e-07
0.7503	423.15	3289.3	1.836e-05	5.82e-07
0.7503	423.15	3552.1	1.8589e-05	5.87e-07
0.7503	423.15	3813.6	1.8858e-05	5.93e-07
0.7503	423.15	4061.5	1.9159e-05	6e-07
0.7503	423.15	4298.5	1.9435e-05	6.07e-07
0.7503	423.15	4492.6	1.9623e-05	6.11e-07
0.7503	423.15	4689.8	1.9883e-05	6.17e-07
0.7503	423.15	4902.5	2.023e-05	6.25e-07
0.7503	423.15	5070	2.0424e-05	6.3e-07
0.7503	423.15	5285.8	2.0774e-05	6.38e-07
0.7503	423.15	5493.3	2.1079e-05	6.45e-07
0.7503	423.15	5672.2	2.1388e-05	6.52e-07
0.7503	423.15	5887.3	2.175e-05	6.6e-07
