Measured thermophysical data. Density and Viscosity Measurements of Dimethoxymethane and 1,2-Dimethoxyethane from 243 K to 373 K up to 20 MPa
Source: Int. J. Thermophys., 2008, 10.1007/s10765-008-0503-0
Compound 1: dimethoxymethane, C3H8O2, InChI=1S/C3H8O2/c1-4-3-5-2/h3H2,1-2H3
Compound 2: 1,2-dimethoxyethane, C4H10O2, InChI=1S/C4H10O2/c1-5-3-4-6-2/h3-4H2,1-2H3

System: dimethoxymethane; phases: Liquid
Property: Viscosity, Pa*s (Liquid); method: Vibrating wire viscometry
Temperature, K	Pressure, kPa	Viscosity, Pa*s	uncertainty
243.15	100	0.0006298	2.59e-05
243.15	4400	0.000651	2.68e-05
243.15	9420	0.0006752	2.77e-05
243.15	14450	0.0007003	2.87e-05
243.15	19440	0.0007258	2.97e-05
253.15	100	0.0005389	2.23e-05
253.15	4420	0.000556	2.3e-05
253.15	9410	0.0005769	2.38e-05
253.15	14450	0.0005975	2.46e-05
253.15	19440	0.0006191	2.55e-05
263.15	100	0.0004697	1.95e-05
263.15	4440	0.0004857	2.02e-05
263.15	9440	0.0005039	2.09e-05
263.15	14470	0.0005215	2.16e-05
263.15	19470	0.0005406	2.23e-05
273.15	100	0.0004145	1.73e-05
273.15	4440	0.0004285	1.79e-05
273.15	9440	0.0004446	1.85e-05
273.15	14480	0.0004615	1.92e-05
273.15	19540	0.0004783	1.99e-05
283.15	100	0.0003685	1.55e-05
283.15	4450	0.0003818	1.61e-05
283.15	9430	0.0003964	1.66e-05
283.15	14490	0.0004114	1.72e-05
283.15	19550	0.0004265	1.78e-05
293.15	100	0.0003303	1.4e-05
293.15	4410	0.000342	1.45e-05
293.15	9460	0.0003559	1.5e-05
293.15	14490	0.0003692	1.56e-05
293.15	19550	0.0003832	1.61e-05
303.15	100	0.0002963	1.27e-05
303.15	4450	0.0003076	1.32e-05
303.15	9450	0.0003199	1.36e-05
303.15	14490	0.0003323	1.41e-05
303.15	19550	0.000345	1.46e-05
313.15	160	0.0002682	1.16e-05
313.15	4440	0.0002785	1.2e-05
313.15	9420	0.0002905	1.25e-05
313.15	14450	0.0003022	1.29e-05
313.15	19440	0.0003137	1.34e-05
323.15	190	0.0002436	1.07e-05
323.15	4390	0.0002532	1.11e-05
323.15	9420	0.0002644	1.15e-05
323.15	14460	0.0002758	1.19e-05
323.15	19490	0.0002866	1.23e-05
333.15	210	0.0002202	9.8e-06
333.15	4390	0.000229	1.01e-05
333.15	9410	0.0002401	1.06e-05
333.15	14450	0.0002504	1.1e-05
333.15	19450	0.000261	1.14e-05
343.15	280	0.0002009	9.1e-06
343.15	4430	0.0002096	9.4e-06
343.15	9430	0.0002203	9.8e-06
343.15	14460	0.0002301	1.02e-05
343.15	19460	0.00024	1.06e-05
353.15	360	0.0001837	8.5e-06
353.15	4370	0.0001922	8.8e-06
353.15	9400	0.0002024	9.2e-06
353.15	14450	0.0002123	9.5e-06
353.15	19430	0.0002217	9.9e-06
363.15	430	0.0001688	7.9e-06
363.15	4400	0.0001767	8.2e-06
363.15	9410	0.0001868	8.6e-06
363.15	14450	0.0001963	8.9e-06
363.15	19460	0.0002059	9.3e-06
373.15	550	0.0001551	7.4e-06
373.15	4370	0.0001628	7.7e-06
373.15	9400	0.0001728	8.1e-06
373.15	14450	0.0001822	8.4e-06
373.15	19480	0.0001914	8.7e-06

System: dimethoxymethane; phases: Liquid
Property: Mass density, kg/m3 (Liquid); method: vibrating wire
Temperature, K	Pressure, kPa	Mass density, kg/m3	uncertainty
243.15	100	917.773	3.671
243.15	4400	921.19	3.685
243.15	9420	924.889	3.7
243.15	14450	928.455	3.714
243.15	19440	931.885	3.728
253.15	100	905.693	3.623
253.15	4420	909.439	3.638
253.15	9410	913.399	3.654
253.15	14450	917.473	3.67
253.15	19440	921.171	3.685
263.15	100	893.705	3.575
263.15	4440	897.611	3.591
263.15	9440	901.958	3.608
263.15	14470	906.179	3.625
263.15	19470	910.144	3.641
273.15	100	881.433	3.526
273.15	4440	885.755	3.543
273.15	9440	890.38	3.562
273.15	14480	894.826	3.58
273.15	19540	899.081	3.597
283.15	100	869.282	3.478
283.15	4450	873.902	3.496
283.15	9430	878.977	3.516
283.15	14490	883.736	3.535
283.15	19550	888.33	3.554
293.15	100	857.043	3.429
293.15	4410	862.006	3.448
293.15	9460	867.484	3.47
293.15	14490	872.625	3.491
293.15	19550	877.53	3.511
303.15	100	844.252	3.377
303.15	4450	849.702	3.399
303.15	9450	855.591	3.423
303.15	14490	861.24	3.445
303.15	19550	866.565	3.467
313.15	160	831.685	3.327
313.15	4440	837.579	3.351
313.15	9420	843.933	3.376
313.15	14450	849.923	3.4
313.15	19440	855.5	3.423
323.15	190	818.682	3.275
323.15	4390	824.99	3.301
323.15	9420	832.095	3.329
323.15	14460	838.549	3.355
323.15	19490	844.585	3.379
333.15	210	805.334	3.222
333.15	4390	812.279	3.25
333.15	9410	819.852	3.28
333.15	14450	826.872	3.308
333.15	19450	833.322	3.334
343.15	280	791.705	3.168
343.15	4430	799.263	3.198
343.15	9430	807.432	3.23
343.15	14460	815.084	3.261
343.15	19460	822.037	3.289
353.15	360	777.688	3.112
353.15	4370	785.794	3.144
353.15	9400	794.895	3.18
353.15	14450	803.147	3.213
353.15	19430	810.634	3.243
363.15	430	763.12	3.054
363.15	4400	772.066	3.089
363.15	9410	782.127	3.129
363.15	14450	791.118	3.165
363.15	19460	799.153	3.198
373.15	550	748.032	2.993
373.15	4370	757.736	3.032
373.15	9400	768.901	3.077
373.15	14450	778.77	3.116
373.15	19480	787.494	3.151

System: 1,2-dimethoxyethane; phases: Liquid
Property: Viscosity, Pa*s (Liquid); method: Vibrating wire viscometry
Temperature, K	Pressure, kPa	Viscosity, Pa*s	uncertainty
243.15	100	0.0008856	3.62e-05
243.15	4540	0.0009166	3.74e-05
243.15	9560	0.0009502	3.87e-05
243.15	14590	0.0009855	4.02e-05
243.15	19470	0.0010166	4.14e-05
253.15	100	0.0007464	3.06e-05
253.15	4550	0.0007729	3.17e-05
253.15	9550	0.0007995	3.27e-05
253.15	14450	0.0008296	3.39e-05
253.15	19430	0.000858	3.51e-05
263.15	100	0.000642	2.64e-05
263.15	4560	0.0006618	2.72e-05
263.15	9590	0.0006849	2.81e-05
263.15	14590	0.0007095	2.91e-05
263.15	19460	0.0007337	3.01e-05
273.15	100	0.0005585	2.31e-05
273.15	4560	0.0005759	2.38e-05
273.15	9590	0.0005961	2.46e-05
273.15	14550	0.0006173	2.54e-05
273.15	19480	0.0006392	2.63e-05
283.15	100	0.0004904	2.04e-05
283.15	4550	0.0005056	2.1e-05
283.15	9570	0.000525	2.17e-05
283.15	14460	0.0005458	2.25e-05
283.15	19450	0.0005619	2.32e-05
293.15	100	0.0004341	1.81e-05
293.15	4530	0.0004492	1.87e-05
293.15	9560	0.0004673	1.94e-05
293.15	14460	0.000485	2.01e-05
293.15	19450	0.0005011	2.08e-05
303.15	100	0.0003896	1.64e-05
303.15	4540	0.0004031	1.69e-05
303.15	9500	0.0004197	1.75e-05
303.15	14440	0.0004334	1.81e-05
303.15	19440	0.0004494	1.87e-05
313.15	100	0.0003512	1.49e-05
313.15	4540	0.0003641	1.54e-05
313.15	9500	0.0003784	1.59e-05
313.15	14440	0.0003922	1.65e-05
313.15	19420	0.0004055	1.7e-05
323.15	100	0.0003189	1.36e-05
323.15	4560	0.0003303	1.4e-05
323.15	9530	0.0003433	1.45e-05
323.15	14450	0.0003562	1.5e-05
323.15	19460	0.0003693	1.56e-05
333.15	100	0.0002903	1.25e-05
333.15	4550	0.0003018	1.29e-05
333.15	9570	0.0003129	1.34e-05
333.15	14460	0.0003256	1.39e-05
333.15	19430	0.0003372	1.43e-05
343.15	100	0.0002653	1.15e-05
343.15	4540	0.0002754	1.19e-05
343.15	9560	0.0002868	1.24e-05
343.15	14440	0.0002985	1.28e-05
343.15	19420	0.0003093	1.32e-05
353.15	360	0.0002437	1.07e-05
353.15	4560	0.0002539	1.11e-05
353.15	9570	0.0002642	1.15e-05
353.15	14440	0.0002754	1.19e-05
353.15	19420	0.0002858	1.23e-05
363.15	160	0.0002233	9.9e-06
363.15	4560	0.000233	1.03e-05
363.15	9570	0.0002438	1.07e-05
363.15	14440	0.0002557	1.12e-05
363.15	19420	0.0002641	1.15e-05
373.15	200	0.0002059	9.3e-06
373.15	4560	0.0002157	9.6e-06
373.15	9580	0.0002263	1e-05
373.15	14440	0.0002355	1.04e-05
373.15	19420	0.0002457	1.08e-05

System: 1,2-dimethoxyethane; phases: Liquid
Property: Mass density, kg/m3 (Liquid); method: vibrating wire
Temperature, K	Pressure, kPa	Mass density, kg/m3	uncertainty
243.15	100	919.667	3.679
243.15	4540	923.045	3.692
243.15	9560	926.586	3.707
243.15	14590	928.901	3.716
243.15	19470	931.879	3.728
253.15	100	909.614	3.639
253.15	4550	912.595	3.651
253.15	9550	915.73	3.663
253.15	14450	917.844	3.672
253.15	19430	921.699	3.687
263.15	100	899.206	3.597
263.15	4560	901.757	3.607
263.15	9590	904.482	3.618
263.15	14590	908.179	3.633
263.15	19460	911.986	3.648
273.15	100	887.607	3.551
273.15	4560	890.738	3.563
273.15	9590	894.412	3.578
273.15	14550	898.792	3.595
273.15	19480	903.248	3.613
283.15	100	876.889	3.508
283.15	4550	880.455	3.522
283.15	9570	884.621	3.539
283.15	14460	889.18	3.557
283.15	19450	892.89	3.572
293.15	100	866.528	3.466
293.15	4530	869.991	3.48
293.15	9560	875.037	3.5
293.15	14460	879.707	3.519
293.15	19450	883.646	3.535
303.15	100	855.111	3.421
303.15	4540	859.667	3.439
303.15	9500	865.15	3.461
303.15	14440	869.454	3.478
303.15	19440	873.398	3.494
313.15	100	843.765	3.375
313.15	4540	848.633	3.395
313.15	9500	854.082	3.417
313.15	14440	858.578	3.435
313.15	19420	863.033	3.453
323.15	100	832.929	3.332
323.15	4560	838.334	3.354
323.15	9530	843.798	3.376
323.15	14450	848.464	3.394
323.15	19460	852.959	3.412
333.15	100	822.133	3.289
333.15	4550	827.195	3.309
333.15	9570	833.307	3.334
333.15	14460	837.525	3.351
333.15	19430	842.805	3.372
343.15	100	809.48	3.239
343.15	4540	815.487	3.262
343.15	9560	821.858	3.288
343.15	14440	827.359	3.31
343.15	19420	832.794	3.332
353.15	360	798.071	3.193
353.15	4560	803.982	3.216
353.15	9570	810.723	3.243
353.15	14440	817.205	3.269
353.15	19420	822.843	3.292
363.15	160	785.42	3.142
363.15	4560	792.463	3.17
363.15	9570	799.914	3.2
363.15	14440	806.21	3.225
363.15	19420	812.462	3.251
373.15	200	772.627	3.091
373.15	4560	780.565	3.123
373.15	9580	788.637	3.155
373.15	14440	795.752	3.184
373.15	19420	802.7	3.212
