Measured thermophysical data. Solubility of Nitrogen Gas in Aqueous Solution of Tetra-n-Butylammonium Bromide
Source: Int. J. Thermophys., 2017, 10.1007/s10765-017-2310-y
Compound 1: tetrabutylammonium bromide, C16H36BrN, InChI=1S/C16H36N.BrH/c1-5-9-13-17(14-10-6-2,15-11-7-3)16-12-8-4;/h5-16H2,1-4H3;1H/q+1;/p-1, purity 99.5%
Compound 2: water, H2O, InChI=1S/H2O/h1H2
Compound 3: nitrogen, N2, InChI=1S/N2/c1-2

System: tetrabutylammonium bromide + nitrogen + water; phases: Liquid, Gas
Property: Mole fraction of nitrogen (Liquid); method: Gravimetric
Temperature, K	Pressure, kPa	Mass fraction of tetrabutylammonium bromide	Mole fraction of nitrogen	uncertainty
292.15	3000	0	0.0003	0.0001
292.15	5000	0	0.0006	0.0001
292.15	7000	0	0.0007	0.0001
292.15	3000	0.0973	0.0004	0.0001
292.15	5000	0.1035	0.0005	0.0001
292.15	7000	0.1018	0.0008	0.0001
292.15	3000	0.2048	0.0003	0.0001
292.15	5000	0.1985	0.0006	0.0001
292.15	7000	0.1967	0.0007	0.0001
292.15	3000	0.2983	0.0005	0.0001
292.15	5000	0.2983	0.0005	0.0001
292.15	7000	0.2983	0.0008	0.0001
292.15	3000	0.4007	0.0003	0.0001
292.15	5000	0.4012	0.0004	0.0001
292.15	7000	0.3998	0.0008	0.0001
302.15	3000	0	0.0004	0.0001
302.15	5000	0	0.0006	0.0001
302.15	7000	0	0.0008	0.0001
302.15	3000	0.1005	0.0002	0.0001
302.15	5000	0.0986	0.0006	0.0001
302.15	7000	0.1004	0.0007	0.0001
302.15	3000	0.2005	0.0002	0.0001
302.15	5000	0.203	0.0005	0.0001
302.15	7000	0.1965	0.0008	0.0001
302.15	3000	0.3006	0.0004	0.0001
302.15	5000	0.304	0.0006	0.0001
302.15	7000	0.3031	0.0008	0.0001
302.15	3000	0.3994	0.0004	0.0001
302.15	5000	0.4045	0.0005	0.0001
302.15	7000	0.4019	0.001	0.0001
307.15	3000	0	0.0003	0.0001
307.15	5000	0	0.0004	0.0001
307.15	7000	0	0.0007	0.0001
307.15	3000	0.1007	0.0003	0.0001
307.15	5000	0.0999	0.0005	0.0001
307.15	7000	0.1009	0.0007	0.0001
307.15	3000	0.1971	0.0002	0.0001
307.15	5000	0.1984	0.0004	0.0001
307.15	7000	0.2006	0.0007	0.0001
307.15	3000	0.3029	0.0004	0.0001
307.15	5000	0.3012	0.0005	0.0001
307.15	7000	0.2982	0.0008	0.0001
307.15	3000	0.3986	0.0002	0.0001
307.15	5000	0.401	0.0005	0.0001
307.15	7000	0.4018	0.0009	0.0001

System: nitrogen + water; phases: Liquid, Gas
Property: Boiling temperature at pressure P, K (Liquid); method: Gravimetric
Mole fraction of nitrogen	Pressure, kPa	Boiling temperature at pressure P, K	uncertainty
0.0003	3000	292.15	1.21
0.0006	5000	292.15	9.12
0.0007	7000	292.15	12.31
0.0004	3000	302.15	12.02
0.0006	5000	302.15	3.34
0.0008	7000	302.15	12.31
0.0003	3000	307.15	0.52
0.0004	5000	307.15	9.06
0.0007	7000	307.15	8.11
