Measured thermophysical data. Triple-Point Temperatures of 20Ne and 22Ne
Source: Int. J. Thermophys., 2011, 10.1007/s10765-011-0939-5
Compound 1: neon-20, Ne, InChI=1S/Ne/i1+0, purity 98%
Compound 2: neon-22, Ne, InChI=1S/Ne/i1+2, purity 98%

System: neon-20; phases: Crystal, Liquid, Gas
Property: Triple point temperature, K (Crystal); method: triple pt. cell
Triple point temperature, K	uncertainty
24.5423	8e-05

System: neon-22; phases: Crystal, Liquid, Gas
Property: Triple point temperature, K (Crystal); method: triple pt. cell
Triple point temperature, K	uncertainty
24.68889	8e-05
