Measured thermophysical data. Simulation and Experimental Study on Thermal Conductivity of [EMIM][DEP]+H2O+SWCNTs Nanofluids as a New Working Pairs
Source: Int. J. Thermophys., 2018, 10.1007/s10765-018-2359-2
Compound 1: water, H2O, InChI=1S/H2O/h1H2, purity 99.8%
Compound 2: 1-ethyl-3-methylimidazolium diethyl phosphate, C10H21N2O4P, InChI=1S/C6H11N2.C4H11O4P/c1-3-8-5-4-7(2)6-8;1-3-7-9(5,6)8-4-2/h4-6H,3H2,1-2H3;3-4H2,1-2H3,(H,5,6)/q+1;/p-1

System: water; phases: Liquid
Fixed: Pressure, kPa = 100
Property: Thermal conductivity, W/m/K (Liquid); method: THOTW
Temperature, K	Thermal conductivity, W/m/K	uncertainty
302.39	0.6187	0.0248
314.31	0.6334	0.0254
333.54	0.656	0.0263
353.53	0.67	0.0269

System: 1-ethyl-3-methylimidazolium diethyl phosphate; phases: Liquid
Fixed: Pressure, kPa = 100
Property: Mass density, kg/m3 (Liquid); method: unknown
Temperature, K	Mass density, kg/m3	uncertainty
303.15	1144.9	10
313.15	1139.2	10
333.15	1127.2	10
353.15	1115.2	10

System: 1-ethyl-3-methylimidazolium diethyl phosphate; phases: Liquid
Property: Thermal conductivity, W/m/K (Liquid); method: THOTW
Temperature, K	Pressure, kPa	Thermal conductivity, W/m/K	uncertainty
313.15	100	0.1745	0.0071

System: 1-ethyl-3-methylimidazolium diethyl phosphate + water; phases: Liquid
Fixed: Pressure, kPa = 100
Property: Mass density, kg/m3 (Liquid); method: unknown
Mole fraction of 1-ethyl-3-methylimidazolium diethyl phosphate	Temperature, K	Mass density, kg/m3	uncertainty
0.2	303.15	1133.7	10
0.2	313.15	1126	10
0.2	333.15	1112.4	10
0.2	353.15	1098.8	10
0.4	303.15	1137.4	10
0.4	313.15	1131.3	10
0.4	333.15	1118.3	10
0.4	353.15	1105.7	10
0.6	303.15	1139.3	10
0.6	313.15	1133.3	10
0.6	333.15	1121.1	10
0.6	353.15	1108.9	10
0.8	303.15	1143.2	10
0.8	313.15	1137.2	10
0.8	333.15	1124.4	10
0.8	353.15	1118	10
1	303.15	1144.9	10
1	313.15	1139.2	10
1	333.15	1127.2	10
1	353.15	1115.2	10

System: 1-ethyl-3-methylimidazolium diethyl phosphate + water; phases: Liquid
Fixed: Temperature, K = 313.15
Fixed: Pressure, kPa = 100
Property: Thermal conductivity, W/m/K (Liquid); method: THOTW
Mole fraction of 1-ethyl-3-methylimidazolium diethyl phosphate	Thermal conductivity, W/m/K	uncertainty
0.2	0.2341	0.0094
0.4	0.1964	0.0079
0.6	0.1849	0.0074
0.8	0.1783	0.0072
1	0.1745	0.0071
