Measured thermophysical data. Thermophysical Properties of Ionic Liquid, 1-Pentyl-3-methylimidazolium chloride in Water at Different temperatures
Source: Int. J. Thermophys., 2009, 10.1007/s10765-009-0566-6
Compound 1: 1-methyl-3-pentylimidazolium chloride, C9H17ClN2, InChI=1S/C9H17N2.ClH/c1-3-4-5-6-11-8-7-10(2)9-11;/h7-9H,3-6H2,1-2H3;1H/q+1;/p-1
Compound 2: water, H2O, InChI=1S/H2O/h1H2

System: water + 1-methyl-3-pentylimidazolium chloride; phases: Liquid, Gas
Property: Osmotic coefficient (Liquid); method: vapor pressure osmometry
Temperature, K	Molality, mol/kg of 1-methyl-3-pentylimidazolium chloride	Osmotic coefficient	uncertainty
298.15	0.014	0.931	0.019
298.15	0.0263	0.889	0.018
298.15	0.0391	0.882	0.018
298.15	0.0518	0.871	0.018
298.15	0.0634	0.863	0.018
298.15	0.084	0.852	0.018
298.15	0.1007	0.841	0.018
298.15	0.1369	0.821	0.018
298.15	0.1784	0.805	0.018
298.15	0.2198	0.797	0.017
298.15	0.2765	0.79	0.017
298.15	0.3517	0.781	0.017
298.15	0.4043	0.768	0.017
298.15	0.5014	0.75	0.017
298.15	0.5758	0.735	0.017
298.15	0.8464	0.722	0.017
298.15	1.0016	0.71	0.018
298.15	1.3758	0.697	0.018
298.15	1.7972	0.687	0.018
308.15	0.014	0.938	0.019
308.15	0.0263	0.905	0.018
308.15	0.0391	0.887	0.018
308.15	0.0518	0.878	0.018
308.15	0.0634	0.868	0.018
308.15	0.084	0.858	0.018
308.15	0.1007	0.845	0.018
308.15	0.1369	0.829	0.018
308.15	0.1784	0.812	0.018
308.15	0.2198	0.803	0.018
308.15	0.2765	0.795	0.017
308.15	0.3517	0.788	0.017
308.15	0.4043	0.78	0.017
308.15	0.5014	0.753	0.017
308.15	0.5758	0.742	0.017
308.15	0.8464	0.726	0.017
308.15	1.0016	0.715	0.018
308.15	1.3758	0.704	0.018
308.15	1.7972	0.691	0.018
318.15	0.014	0.941	0.019
318.15	0.0263	0.911	0.018
318.15	0.0391	0.903	0.018
318.15	0.0518	0.885	0.018
318.15	0.0634	0.878	0.018
318.15	0.084	0.865	0.018
318.15	0.1007	0.854	0.018
318.15	0.1369	0.845	0.018
318.15	0.1784	0.831	0.018
318.15	0.2198	0.822	0.018
318.15	0.2765	0.803	0.018
318.15	0.3517	0.794	0.017
318.15	0.4043	0.784	0.017
318.15	0.5014	0.76	0.017
318.15	0.5758	0.748	0.017
318.15	0.8464	0.735	0.017
318.15	1.0016	0.723	0.017
318.15	1.3758	0.711	0.018
318.15	1.7972	0.697	0.018
328.15	0.014	0.949	0.019
328.15	0.0263	0.923	0.019
328.15	0.0391	0.908	0.018
328.15	0.0518	0.897	0.018
328.15	0.0634	0.886	0.018
328.15	0.084	0.87	0.018
328.15	0.1007	0.866	0.018
328.15	0.1369	0.849	0.018
328.15	0.1784	0.837	0.018
328.15	0.2198	0.828	0.018
328.15	0.2765	0.809	0.018
328.15	0.3517	0.799	0.017
328.15	0.4043	0.79	0.017
328.15	0.5014	0.771	0.017
328.15	0.5758	0.756	0.017
328.15	0.8464	0.739	0.017
328.15	1.0016	0.73	0.017
328.15	1.3758	0.718	0.017
328.15	1.7972	0.704	0.018

System: water + 1-methyl-3-pentylimidazolium chloride; phases: Liquid
Fixed: Pressure, kPa = 101
Property: Molar conductivity, S*m2/mol (Liquid); method: Direct current cell with electrodes
Temperature, K	Amount concentration (molarity), mol/dm3 of 1-methyl-3-pentylimidazolium chloride	Molar conductivity, S*m2/mol	uncertainty
298.15	0.000693	0.008706	0.0001741
298.15	0.001453	0.0086629	0.0001733
298.15	0.002097	0.0086326	0.0001727
298.15	0.002732	0.0086212	0.0001724
298.15	0.004637	0.008595	0.000172
298.15	0.006272	0.008578	0.000172
298.15	0.007754	0.0085176	0.0001704
298.15	0.010226	0.0084053	0.0001681
298.15	0.012833	0.008324	0.0001665
298.15	0.017749	0.0081651	0.0001633
298.15	0.021857	0.0080443	0.0001609
298.15	0.027042	0.0079329	0.0001587
298.15	0.032054	0.0078281	0.0001566
298.15	0.036797	0.0078029	0.0001561
298.15	0.041319	0.0077162	0.0001543
298.15	0.04635	0.0076273	0.0001525
298.15	0.051824	0.0075182	0.0001504
308.15	0.000752	0.0099323	0.0001986
308.15	0.001643	0.009749	0.000195
308.15	0.002686	0.0096351	0.0001927
308.15	0.00347	0.0095614	0.0001912
308.15	0.004191	0.0095949	0.0001919
308.15	0.005081	0.0095317	0.0001906
308.15	0.006215	0.0094452	0.0001889
308.15	0.007646	0.0093704	0.0001874
308.15	0.009172	0.009268	0.000185
308.15	0.011021	0.0091675	0.0001834
308.15	0.012685	0.0091161	0.0001823
308.15	0.01447	0.0090623	0.0001812
308.15	0.01625	0.0090172	0.0001803
308.15	0.017994	0.0089495	0.000179
308.15	0.019859	0.0088945	0.0001779
308.15	0.022534	0.0088058	0.0001761
308.15	0.025491	0.0087299	0.0001746
308.15	0.028845	0.0086301	0.0001726
308.15	0.032453	0.008558	0.0001712
308.15	0.036305	0.0084625	0.0001693
308.15	0.040729	0.0083658	0.0001673
308.15	0.046028	0.0081958	0.0001639
308.15	0.04936	0.0081448	0.0001629
318.15	0.000273	0.0115471	0.0002309
318.15	0.000592	0.0113693	0.0002274
318.15	0.001207	0.011221	0.0002244
318.15	0.002002	0.0111247	0.0002225
318.15	0.002757	0.0109817	0.0002196
318.15	0.003483	0.0108015	0.000216
318.15	0.004458	0.0107335	0.0002147
318.15	0.005601	0.010649	0.000213
318.15	0.007348	0.0104919	0.0002098
318.15	0.008904	0.0103795	0.0002076
318.15	0.010517	0.010296	0.0002059
318.15	0.012404	0.0101974	0.0002039
318.15	0.014778	0.0100615	0.0002012
318.15	0.016606	0.0099955	0.0001999
318.15	0.019595	0.0098894	0.0001978
318.15	0.022411	0.0097761	0.0001955
318.15	0.025446	0.009663	0.000193
318.15	0.028969	0.0095269	0.0001905
318.15	0.033178	0.0093855	0.0001877
318.15	0.037786	0.0092411	0.0001848
328.15	0.000588	0.01187	0.000237
328.15	0.001076	0.011762	0.000235
328.15	0.001612	0.011675	0.000234
328.15	0.002109	0.011641	0.000233
328.15	0.002949	0.011595	0.000232
328.15	0.003721	0.011557	0.000231
328.15	0.004608	0.011463	0.000229
328.15	0.005897	0.011341	0.000227
328.15	0.007087	0.011127	0.000223
328.15	0.008632	0.010973	0.000219
328.15	0.010343	0.010784	0.000216
328.15	0.012292	0.010569	0.000211
328.15	0.015387	0.010478	0.00021
328.15	0.017876	0.010359	0.000207
328.15	0.020113	0.010293	0.000206
328.15	0.02273	0.010107	0.000202

System: water + 1-methyl-3-pentylimidazolium chloride; phases: Liquid
Fixed: Pressure, kPa = 101
Property: Refractive index (Na D-line) (Liquid); method: Standard Abbe refractometry
Temperature, K	Molality, mol/kg of 1-methyl-3-pentylimidazolium chloride	Refractive index (Na D-line)	uncertainty
298.15	0.014	1.3331	0.0011
298.15	0.0263	1.3334	0.0011
298.15	0.0391	1.3338	0.0011
298.15	0.0518	1.3342	0.0011
298.15	0.0634	1.3344	0.0011
298.15	0.084	1.3351	0.0011
298.15	0.1007	1.3358	0.0011
298.15	0.1369	1.3367	0.0011
298.15	0.1784	1.3379	0.001
298.15	0.2198	1.3392	0.001
298.15	0.2765	1.3408	0.001
298.15	0.3517	1.343	0.001
298.15	0.4043	1.3443	0.001
298.15	0.5014	1.347	0.001
298.15	0.5758	1.3489	0.001
298.15	0.8464	1.3558	0.001
298.15	1.0016	1.3596	0.001
298.15	1.3758	1.3679	0.001
298.15	1.7972	1.3764	0.0009
308.15	0.014	1.3318	0.0011
308.15	0.0263	1.3321	0.0011
308.15	0.0391	1.3324	0.0011
308.15	0.0518	1.3328	0.0011
308.15	0.0634	1.3331	0.0011
308.15	0.084	1.3339	0.0011
308.15	0.1007	1.3344	0.0011
308.15	0.1369	1.3357	0.0011
308.15	0.1784	1.3367	0.0011
308.15	0.2198	1.3378	0.0011
308.15	0.2765	1.3397	0.001
308.15	0.3517	1.3416	0.001
308.15	0.4043	1.343	0.001
308.15	0.5014	1.3457	0.001
308.15	0.5758	1.3475	0.001
308.15	0.8464	1.3547	0.001
308.15	1.0016	1.3579	0.001
308.15	1.3758	1.3658	0.001
308.15	1.7972	1.3745	0.0009
318.15	0.014	1.3302	0.0011
318.15	0.0263	1.3305	0.0011
318.15	0.0391	1.3308	0.0011
318.15	0.0518	1.3313	0.0011
318.15	0.0634	1.3316	0.0011
318.15	0.084	1.3322	0.0011
318.15	0.1007	1.3327	0.0011
318.15	0.1369	1.3336	0.0011
318.15	0.1784	1.3349	0.0011
318.15	0.2198	1.3359	0.0011
318.15	0.2765	1.3377	0.0011
318.15	0.3517	1.3397	0.001
318.15	0.4043	1.3411	0.001
318.15	0.5014	1.3437	0.001
318.15	0.5758	1.3457	0.001
318.15	0.8464	1.3523	0.001
318.15	1.0016	1.3557	0.001
318.15	1.3758	1.3639	0.001
318.15	1.7972	1.3721	0.0009
328.15	0.014	1.3282	0.0011
328.15	0.0263	1.3284	0.0011
328.15	0.0391	1.3288	0.0011
328.15	0.0518	1.3291	0.0011
328.15	0.0634	1.3294	0.0011
328.15	0.084	1.3305	0.0011
328.15	0.1007	1.3309	0.0011
328.15	0.1369	1.3316	0.0011
328.15	0.1784	1.3328	0.0011
328.15	0.2198	1.3339	0.0011
328.15	0.2765	1.3356	0.0011
328.15	0.3517	1.3376	0.001
328.15	0.4043	1.3389	0.001
328.15	0.5014	1.3419	0.001
328.15	0.5758	1.344	0.001
328.15	0.8464	1.3505	0.001
328.15	1.0016	1.3537	0.001
328.15	1.3758	1.3619	0.001
328.15	1.7972	1.3697	0.0009
