Measured thermophysical data. Volumetric and Acoustic Properties for Binary Mixtures of Dipropylene Glycol Monopropyl Ether with Alkylamines at Temperatures Between 288.15 K and 308.15 K
Source: Int. J. Thermophys., 2009, 10.1007/s10765-009-0593-3
Compound 1: tributylamine, C12H27N, InChI=1S/C12H27N/c1-4-7-10-13(11-8-5-2)12-9-6-3/h4-12H2,1-3H3
Compound 2: 1-(1-methyl-2-propoxyethoxy)-2-propanol, C9H20O3, InChI=1S/C9H20O3/c1-4-5-11-7-9(3)12-6-8(2)10/h8-10H,4-7H2,1-3H3, purity 99.1%
Compound 3: 1-butanamine, C4H11N, InChI=1S/C4H11N/c1-2-3-4-5/h2-5H2,1H3
Compound 4: dibutylamine, C8H19N, InChI=1S/C8H19N/c1-3-5-7-9-8-6-4-2/h9H,3-8H2,1-2H3

System: tributylamine; phases: Liquid
Fixed: Pressure, kPa = 101.325
Property: Speed of sound, m/s (Liquid); method: Pulse-echo method
Temperature, K	Speed of sound, m/s	uncertainty
288.15	1285.04	0.83
293.15	1266.37	0.82
298.15	1247.64	0.81
303.15	1228.98	0.81
308.15	1210.42	0.8

System: tributylamine; phases: Liquid
Fixed: Pressure, kPa = 101.325
Property: Mass density, kg/m3 (Liquid); method: VIBTUB:UFactor:4
Temperature, K	Mass density, kg/m3	uncertainty
288.15	781.336	0.503
293.15	777.632	0.508
298.15	773.913	0.514
303.15	770.183	0.52
308.15	766.44	0.526

System: 1-(1-methyl-2-propoxyethoxy)-2-propanol; phases: Liquid
Fixed: Pressure, kPa = 101.325
Property: Speed of sound, m/s (Liquid); method: Pulse-echo method
Temperature, K	Speed of sound, m/s	uncertainty
288.15	1306.26	0.83
293.15	1287.9	0.83
298.15	1269.88	0.82
303.15	1251.68	0.82
308.15	1234.06	0.81

System: 1-(1-methyl-2-propoxyethoxy)-2-propanol; phases: Liquid
Fixed: Pressure, kPa = 101.325
Property: Mass density, kg/m3 (Liquid); method: VIBTUB:UFactor:4
Temperature, K	Mass density, kg/m3	uncertainty
288.15	924.348	0.287
293.15	919.954	0.293
298.15	915.522	0.3
303.15	911.078	0.307
308.15	906.642	0.314

System: 1-butanamine; phases: Liquid
Fixed: Pressure, kPa = 101.325
Property: Speed of sound, m/s (Liquid); method: Pulse-echo method
Temperature, K	Speed of sound, m/s	uncertainty
288.15	1296.08	0.83
293.15	1273.56	0.82
298.15	1249.96	0.82
303.15	1228.92	0.81
308.15	1205.72	0.8

System: 1-butanamine; phases: Liquid
Fixed: Pressure, kPa = 101.325
Property: Mass density, kg/m3 (Liquid); method: VIBTUB:UFactor:4
Temperature, K	Mass density, kg/m3	uncertainty
288.15	742.865	0.561
293.15	738.096	0.569
298.15	733.301	0.576
303.15	728.477	0.584
308.15	723.625	0.591

System: dibutylamine; phases: Liquid
Fixed: Pressure, kPa = 101.325
Property: Speed of sound, m/s (Liquid); method: Pulse-echo method
Temperature, K	Speed of sound, m/s	uncertainty
288.15	1289.23	0.83
293.15	1269.47	0.82
298.15	1246.69	0.81
303.15	1226.7	0.81
308.15	1206.97	0.8

System: dibutylamine; phases: Liquid
Fixed: Pressure, kPa = 101.325
Property: Mass density, kg/m3 (Liquid); method: VIBTUB:UFactor:4
Temperature, K	Mass density, kg/m3	uncertainty
288.15	766.115	0.526
293.15	762.022	0.532
298.15	757.784	0.539
303.15	752.284	0.547
308.15	748.17	0.554

System: 1-butanamine + 1-(1-methyl-2-propoxyethoxy)-2-propanol; phases: Liquid
Fixed: Pressure, kPa = 101
Property: Speed of sound, m/s (Liquid); method: Pulse-echo method
Temperature, K	Mole fraction of 1-(1-methyl-2-propoxyethoxy)-2-propanol	Speed of sound, m/s	uncertainty
288.15	0.1119	1299.12	0.83
288.15	0.1625	1301.83	0.83
288.15	0.2153	1304.26	0.83
288.15	0.2414	1305.36	0.83
288.15	0.3043	1307.67	0.83
288.15	0.35	1309.06	0.83
288.15	0.4162	1310.65	0.83
288.15	0.4519	1311.32	0.83
288.15	0.4946	1311.93	0.83
288.15	0.547	1312.39	0.83
288.15	0.5938	1312.59	0.83
288.15	0.6567	1312.51	0.83
288.15	0.6997	1312.24	0.83
288.15	0.7665	1311.48	0.83
288.15	0.8068	1310.82	0.83
288.15	0.8466	1309.98	0.83
288.15	0.9038	1308.62	0.83
288.15	0.9528	1307.16	0.83
293.15	0.1119	1277.85	0.82
293.15	0.1625	1280.99	0.83
293.15	0.2153	1283.87	0.83
293.15	0.2414	1285.15	0.83
293.15	0.3043	1287.87	0.83
293.15	0.35	1289.49	0.83
293.15	0.4162	1291.39	0.83
293.15	0.4519	1292.18	0.83
293.15	0.4946	1292.93	0.83
293.15	0.547	1293.55	0.83
293.15	0.5938	1293.84	0.83
293.15	0.6567	1293.87	0.83
293.15	0.6997	1293.66	0.83
293.15	0.7665	1293	0.83
293.15	0.8068	1292.35	0.83
293.15	0.8466	1291.59	0.83
293.15	0.9038	1290.26	0.83
293.15	0.9528	1288.89	0.83
298.15	0.1119	1256.72	0.82
298.15	0.1625	1260.17	0.82
298.15	0.2153	1263.36	0.82
298.15	0.2414	1264.79	0.82
298.15	0.3043	1267.8	0.82
298.15	0.35	1269.68	0.82
298.15	0.4162	1271.86	0.82
298.15	0.4519	1272.8	0.82
298.15	0.4946	1273.7	0.82
298.15	0.547	1274.54	0.82
298.15	0.5938	1274.99	0.82
298.15	0.6567	1275.22	0.82
298.15	0.6997	1275.11	0.82
298.15	0.7665	1274.59	0.82
298.15	0.8068	1274.06	0.82
298.15	0.8466	1273.38	0.82
298.15	0.9038	1272.14	0.82
298.15	0.9528	1270.88	0.82
303.15	0.1119	1235.48	0.81
303.15	0.1625	1239.5	0.81
303.15	0.2153	1243.18	0.81
303.15	0.2414	1244.81	0.81
303.15	0.3043	1248.27	0.81
303.15	0.35	1250.35	0.82
303.15	0.4162	1252.77	0.82
303.15	0.4519	1253.82	0.82
303.15	0.4946	1254.83	0.82
303.15	0.547	1255.75	0.82
303.15	0.5938	1256.28	0.82
303.15	0.6567	1256.6	0.82
303.15	0.6997	1256.55	0.82
303.15	0.7665	1256.14	0.82
303.15	0.8068	1255.71	0.82
303.15	0.8466	1255.15	0.82
303.15	0.9038	1254.15	0.82
303.15	0.9528	1253.12	0.82
308.15	0.1119	1214.24	0.81
308.15	0.1625	1218.71	0.81
308.15	0.2153	1222.78	0.81
308.15	0.2414	1224.6	0.81
308.15	0.3043	1228.41	0.81
308.15	0.35	1230.71	0.81
308.15	0.4162	1233.42	0.81
308.15	0.4519	1234.61	0.81
308.15	0.4946	1235.73	0.81
308.15	0.547	1236.84	0.81
308.15	0.5938	1237.45	0.81
308.15	0.6567	1237.89	0.81
308.15	0.6997	1237.96	0.81
308.15	0.7665	1237.7	0.81
308.15	0.8068	1237.37	0.81
308.15	0.8466	1236.91	0.81
308.15	0.9038	1236.1	0.81
308.15	0.9528	1235.23	0.81

System: 1-butanamine + 1-(1-methyl-2-propoxyethoxy)-2-propanol; phases: Liquid
Fixed: Pressure, kPa = 101
Property: Mass density, kg/m3 (Liquid); method: VIBTUB:UFactor:4
Temperature, K	Mole fraction of 1-(1-methyl-2-propoxyethoxy)-2-propanol	Mass density, kg/m3	uncertainty
288.15	0.1119	781.657	0.5
288.15	0.1625	797.6	0.476
288.15	0.2153	812.62	0.453
288.15	0.2414	819.423	0.442
288.15	0.3043	834.258	0.42
288.15	0.35	843.808	0.405
288.15	0.4162	856.225	0.387
288.15	0.4519	862.336	0.378
288.15	0.4946	869.26	0.367
288.15	0.547	877.184	0.355
288.15	0.5938	883.779	0.345
288.15	0.6567	891.947	0.333
288.15	0.6997	897.047	0.326
288.15	0.7665	904.096	0.315
288.15	0.8068	907.864	0.309
288.15	0.8466	911.283	0.304
288.15	0.9038	915.886	0.298
288.15	0.9528	919.898	0.292
293.15	0.1119	776.972	0.507
293.15	0.1625	792.951	0.483
293.15	0.2153	807.989	0.46
293.15	0.2414	814.802	0.449
293.15	0.3043	829.657	0.427
293.15	0.35	839.22	0.412
293.15	0.4162	851.642	0.394
293.15	0.4519	857.764	0.384
293.15	0.4946	864.701	0.374
293.15	0.547	872.638	0.362
293.15	0.5938	879.25	0.352
293.15	0.6567	887.44	0.34
293.15	0.6997	892.555	0.332
293.15	0.7665	899.635	0.322
293.15	0.8068	903.41	0.316
293.15	0.8466	906.844	0.311
293.15	0.9038	911.457	0.304
293.15	0.9528	915.486	0.298
298.15	0.1119	772.263	0.514
298.15	0.1625	788.269	0.49
298.15	0.2153	803.334	0.467
298.15	0.2414	810.159	0.456
298.15	0.3043	825.032	0.434
298.15	0.35	834.611	0.419
298.15	0.4162	847.04	0.4
298.15	0.4519	853.179	0.391
298.15	0.4946	860.118	0.381
298.15	0.547	868.071	0.369
298.15	0.5938	874.697	0.359
298.15	0.6567	882.917	0.347
298.15	0.6997	888.041	0.339
298.15	0.7665	895.15	0.328
298.15	0.8068	898.94	0.323
298.15	0.8466	902.376	0.317
298.15	0.9038	906.999	0.311
298.15	0.9528	911.061	0.305
303.15	0.1119	767.527	0.521
303.15	0.1625	783.562	0.497
303.15	0.2153	798.647	0.474
303.15	0.2414	805.481	0.463
303.15	0.3043	820.381	0.441
303.15	0.35	829.962	0.426
303.15	0.4162	842.409	0.407
303.15	0.4519	848.559	0.398
303.15	0.4946	855.511	0.388
303.15	0.547	863.48	0.376
303.15	0.5938	870.123	0.366
303.15	0.6567	878.364	0.353
303.15	0.6997	883.505	0.346
303.15	0.7665	890.644	0.335
303.15	0.8068	894.449	0.329
303.15	0.8466	897.903	0.324
303.15	0.9038	902.546	0.317
303.15	0.9528	906.607	0.311
308.15	0.1119	762.757	0.528
308.15	0.1625	778.83	0.504
308.15	0.2153	793.946	0.481
308.15	0.2414	800.782	0.47
308.15	0.3043	815.702	0.448
308.15	0.35	825.299	0.433
308.15	0.4162	837.754	0.414
308.15	0.4519	843.907	0.405
308.15	0.4946	850.865	0.394
308.15	0.547	858.867	0.382
308.15	0.5938	865.527	0.372
308.15	0.6567	873.793	0.36
308.15	0.6997	878.95	0.352
308.15	0.7665	886.119	0.342
308.15	0.8068	889.942	0.336
308.15	0.8466	893.412	0.331
308.15	0.9038	898.065	0.324
308.15	0.9528	902.137	0.318

System: dibutylamine + 1-(1-methyl-2-propoxyethoxy)-2-propanol; phases: Liquid
Fixed: Pressure, kPa = 101
Property: Speed of sound, m/s (Liquid); method: Pulse-echo method
Temperature, K	Mole fraction of 1-(1-methyl-2-propoxyethoxy)-2-propanol	Speed of sound, m/s	uncertainty
288.15	0.123	1291.15	0.83
288.15	0.1582	1293.18	0.83
288.15	0.1913	1294.88	0.83
288.15	0.2541	1297.6	0.83
288.15	0.3195	1299.77	0.83
288.15	0.3623	1300.9	0.83
288.15	0.4155	1301.98	0.83
288.15	0.4543	1302.61	0.83
288.15	0.4974	1303.15	0.83
288.15	0.5491	1303.62	0.83
288.15	0.6027	1303.98	0.83
288.15	0.6687	1304.29	0.83
288.15	0.6962	1304.37	0.83
288.15	0.7504	1304.58	0.83
288.15	0.7997	1304.82	0.83
288.15	0.8657	1305.27	0.83
288.15	0.8963	1305.55	0.83
288.15	0.9589	1306.33	0.83
293.15	0.123	1271.6	0.82
293.15	0.1582	1273.25	0.82
293.15	0.1913	1274.68	0.82
293.15	0.2541	1277.1	0.82
293.15	0.3195	1279.28	0.82
293.15	0.3623	1280.48	0.82
293.15	0.4155	1281.8	0.83
293.15	0.4543	1282.65	0.83
293.15	0.4974	1283.49	0.83
293.15	0.5491	1284.32	0.83
293.15	0.6027	1285.06	0.83
293.15	0.6687	1285.77	0.83
293.15	0.6962	1286	0.83
293.15	0.7504	1286.42	0.83
293.15	0.7997	1286.7	0.83
293.15	0.8657	1287.04	0.83
293.15	0.8963	1287.15	0.83
293.15	0.9589	1287.39	0.83
298.15	0.123	1252.04	0.82
298.15	0.1582	1253.68	0.82
298.15	0.1913	1255.1	0.82
298.15	0.2541	1257.47	0.82
298.15	0.3195	1259.58	0.82
298.15	0.3623	1260.76	0.82
298.15	0.4155	1262.04	0.82
298.15	0.4543	1262.86	0.82
298.15	0.4974	1263.65	0.82
298.15	0.5491	1264.48	0.82
298.15	0.6027	1265.22	0.82
298.15	0.6687	1266	0.82
298.15	0.6962	1266.3	0.82
298.15	0.7504	1266.84	0.82
298.15	0.7997	1267.3	0.82
298.15	0.8657	1267.92	0.82
298.15	0.8963	1268.2	0.82
298.15	0.9589	1268.83	0.82
303.15	0.123	1232.14	0.81
303.15	0.1582	1233.94	0.81
303.15	0.1913	1235.52	0.81
303.15	0.2541	1238.13	0.81
303.15	0.3195	1240.41	0.81
303.15	0.3623	1241.67	0.81
303.15	0.4155	1243.03	0.81
303.15	0.4543	1243.9	0.81
303.15	0.4974	1244.74	0.81
303.15	0.5491	1245.6	0.81
303.15	0.6027	1246.36	0.81
303.15	0.6687	1247.14	0.81
303.15	0.6962	1247.42	0.81
303.15	0.7504	1247.96	0.81
303.15	0.7997	1248.42	0.81
303.15	0.8657	1249.04	0.81
303.15	0.8963	1249.32	0.81
303.15	0.9589	1249.97	0.82
308.15	0.123	1212.22	0.8
308.15	0.1582	1214	0.8
308.15	0.1913	1215.55	0.81
308.15	0.2541	1218.12	0.81
308.15	0.3195	1220.4	0.81
308.15	0.3623	1221.68	0.81
308.15	0.4155	1223.06	0.81
308.15	0.4543	1223.9	0.81
308.15	0.4974	1224.74	0.81
308.15	0.5491	1225.62	0.81
308.15	0.6027	1226.39	0.81
308.15	0.6687	1227.17	0.81
308.15	0.6962	1227.47	0.81
308.15	0.7504	1228.01	0.81
308.15	0.7997	1228.47	0.81
308.15	0.8657	1229.09	0.81
308.15	0.8963	1229.37	0.81
308.15	0.9589	1230	0.81

System: dibutylamine + 1-(1-methyl-2-propoxyethoxy)-2-propanol; phases: Liquid
Fixed: Pressure, kPa = 101
Property: Mass density, kg/m3 (Liquid); method: VIBTUB:UFactor:4
Temperature, K	Mole fraction of 1-(1-methyl-2-propoxyethoxy)-2-propanol	Mass density, kg/m3	uncertainty
288.15	0.123	792.458	0.481
288.15	0.1582	798.993	0.471
288.15	0.1913	804.954	0.462
288.15	0.2541	815.956	0.446
288.15	0.3195	827.1	0.43
288.15	0.3623	834.198	0.419
288.15	0.4155	842.79	0.406
288.15	0.4543	848.877	0.397
288.15	0.4974	855.422	0.388
288.15	0.5491	863.031	0.376
288.15	0.6027	870.648	0.365
288.15	0.6687	879.855	0.351
288.15	0.6962	883.669	0.346
288.15	0.7504	891.256	0.335
288.15	0.7997	898.225	0.324
288.15	0.8657	907.649	0.311
288.15	0.8963	911.923	0.304
288.15	0.9589	920.017	0.292
293.15	0.123	788.243	0.487
293.15	0.1582	794.736	0.478
293.15	0.1913	800.654	0.469
293.15	0.2541	811.61	0.453
293.15	0.3195	822.71	0.436
293.15	0.3623	829.803	0.426
293.15	0.4155	838.381	0.413
293.15	0.4543	844.447	0.404
293.15	0.4974	850.98	0.394
293.15	0.5491	858.573	0.383
293.15	0.6027	866.201	0.371
293.15	0.6687	875.389	0.358
293.15	0.6962	879.204	0.352
293.15	0.7504	886.786	0.341
293.15	0.7997	893.775	0.331
293.15	0.8657	903.208	0.317
293.15	0.8963	907.504	0.311
293.15	0.9589	915.65	0.299
298.15	0.123	783.999	0.494
298.15	0.1582	790.406	0.484
298.15	0.1913	796.281	0.475
298.15	0.2541	807.16	0.459
298.15	0.3195	818.293	0.443
298.15	0.3623	825.41	0.432
298.15	0.4155	834.053	0.419
298.15	0.4543	840.151	0.41
298.15	0.4974	846.721	0.4
298.15	0.5491	854.308	0.389
298.15	0.6027	861.902	0.378
298.15	0.6687	871.011	0.364
298.15	0.6962	874.806	0.359
298.15	0.7504	882.325	0.348
298.15	0.7997	889.311	0.338
298.15	0.8657	898.805	0.324
298.15	0.8963	903.128	0.317
298.15	0.9589	911.3	0.305
303.15	0.123	779.716	0.5
303.15	0.1582	786.126	0.49
303.15	0.1913	791.94	0.482
303.15	0.2541	802.761	0.466
303.15	0.3195	813.903	0.449
303.15	0.3623	821.074	0.439
303.15	0.4155	829.782	0.426
303.15	0.4543	835.948	0.416
303.15	0.4974	842.533	0.407
303.15	0.5491	850.092	0.395
303.15	0.6027	857.606	0.384
303.15	0.6687	866.586	0.371
303.15	0.6962	870.321	0.365
303.15	0.7504	877.785	0.354
303.15	0.7997	884.771	0.344
303.15	0.8657	894.377	0.33
303.15	0.8963	898.789	0.323
303.15	0.9589	907.024	0.311
308.15	0.123	775.539	0.506
308.15	0.1582	781.949	0.497
308.15	0.1913	787.756	0.488
308.15	0.2541	798.492	0.472
308.15	0.3195	809.461	0.456
308.15	0.3623	816.52	0.445
308.15	0.4155	825.107	0.433
308.15	0.4543	831.19	0.423
308.15	0.4974	837.752	0.414
308.15	0.5491	845.325	0.402
308.15	0.6027	852.894	0.391
308.15	0.6687	861.99	0.378
308.15	0.6962	865.762	0.372
308.15	0.7504	873.301	0.361
308.15	0.7997	880.284	0.351
308.15	0.8657	889.838	0.337
308.15	0.8963	894.205	0.33
308.15	0.9589	902.428	0.318

System: tributylamine + 1-(1-methyl-2-propoxyethoxy)-2-propanol; phases: Liquid
Fixed: Pressure, kPa = 101
Property: Speed of sound, m/s (Liquid); method: Pulse-echo method
Temperature, K	Mole fraction of 1-(1-methyl-2-propoxyethoxy)-2-propanol	Speed of sound, m/s	uncertainty
288.15	0.1122	1282.28	0.82
288.15	0.1665	1282.31	0.83
288.15	0.2084	1282.33	0.83
288.15	0.2538	1282.38	0.82
288.15	0.313	1282.55	0.82
288.15	0.3558	1282.77	0.82
288.15	0.4148	1283.28	0.82
288.15	0.4472	1283.67	0.82
288.15	0.5008	1284.53	0.82
288.15	0.5451	1285.47	0.82
288.15	0.6077	1287.17	0.82
288.15	0.6566	1288.88	0.83
288.15	0.7143	1291.34	0.83
288.15	0.7514	1293.23	0.83
288.15	0.8016	1296.14	0.83
288.15	0.856	1299.88	0.83
288.15	0.904	1303.68	0.83
288.15	0.9553	1308.26	0.83
293.15	0.1122	1263.03	0.82
293.15	0.1665	1262.78	0.82
293.15	0.2084	1262.86	0.82
293.15	0.2538	1263.2	0.82
293.15	0.313	1263.95	0.82
293.15	0.3558	1264.75	0.82
293.15	0.4148	1266.18	0.82
293.15	0.4472	1267.07	0.82
293.15	0.5008	1268.8	0.82
293.15	0.5451	1270.35	0.82
293.15	0.6077	1272.8	0.82
293.15	0.6566	1274.89	0.82
293.15	0.7143	1277.5	0.82
293.15	0.7514	1279.26	0.82
293.15	0.8016	1281.68	0.82
293.15	0.856	1284.4	0.82
293.15	0.904	1286.85	0.83
293.15	0.9553	1289.48	0.83
298.15	0.1122	1243.91	0.81
298.15	0.1665	1243.67	0.81
298.15	0.2084	1243.75	0.81
298.15	0.2538	1244.09	0.81
298.15	0.313	1244.88	0.81
298.15	0.3558	1245.72	0.81
298.15	0.4148	1247.16	0.81
298.15	0.4472	1248.07	0.81
298.15	0.5008	1249.82	0.81
298.15	0.5451	1251.45	0.82
298.15	0.6077	1253.99	0.82
298.15	0.6566	1256.15	0.82
298.15	0.7143	1258.85	0.82
298.15	0.7514	1260.69	0.82
298.15	0.8016	1263.25	0.82
298.15	0.856	1266.12	0.82
298.15	0.904	1268.68	0.82
298.15	0.9553	1271.5	0.82
303.15	0.1122	1225.01	0.81
303.15	0.1665	1224.8	0.81
303.15	0.2084	1224.89	0.81
303.15	0.2538	1225.27	0.81
303.15	0.313	1226.12	0.81
303.15	0.3558	1226.97	0.81
303.15	0.4148	1228.46	0.81
303.15	0.4472	1229.4	0.81
303.15	0.5008	1231.18	0.81
303.15	0.5451	1232.84	0.81
303.15	0.6077	1235.42	0.81
303.15	0.6566	1237.65	0.81
303.15	0.7143	1240.42	0.81
303.15	0.7514	1242.29	0.81
303.15	0.8016	1244.95	0.81
303.15	0.856	1247.92	0.81
303.15	0.904	1250.6	0.81
303.15	0.9553	1253.55	0.82
308.15	0.1122	1206.3	0.8
308.15	0.1665	1206.08	0.8
308.15	0.2084	1206.16	0.8
308.15	0.2538	1206.53	0.8
308.15	0.313	1207.4	0.8
308.15	0.3558	1208.26	0.8
308.15	0.4148	1209.78	0.8
308.15	0.4472	1210.75	0.8
308.15	0.5008	1212.59	0.8
308.15	0.5451	1214.29	0.8
308.15	0.6077	1216.98	0.8
308.15	0.6566	1219.26	0.81
308.15	0.7143	1222.14	0.81
308.15	0.7514	1224.1	0.81
308.15	0.8016	1226.85	0.81
308.15	0.856	1229.96	0.81
308.15	0.904	1232.77	0.81
308.15	0.9553	1235.87	0.81

System: tributylamine + 1-(1-methyl-2-propoxyethoxy)-2-propanol; phases: Liquid
Fixed: Pressure, kPa = 101
Property: Mass density, kg/m3 (Liquid); method: VIBTUB:UFactor:4
Temperature, K	Mole fraction of 1-(1-methyl-2-propoxyethoxy)-2-propanol	Mass density, kg/m3	uncertainty
288.15	0.1122	794.307	0.477
288.15	0.1665	800.621	0.468
288.15	0.2084	805.602	0.461
288.15	0.2538	811.153	0.453
288.15	0.313	818.607	0.442
288.15	0.3558	824.155	0.433
288.15	0.4148	832.006	0.422
288.15	0.4472	836.41	0.415
288.15	0.5008	843.844	0.404
288.15	0.5451	850.136	0.395
288.15	0.6077	859.289	0.382
288.15	0.6566	866.709	0.371
288.15	0.7143	875.786	0.358
288.15	0.7514	881.851	0.349
288.15	0.8016	890.298	0.336
288.15	0.856	897.74	0.326
288.15	0.904	908.188	0.311
288.15	0.9553	917.078	0.297
293.15	0.1122	790.425	0.483
293.15	0.1665	796.684	0.474
293.15	0.2084	801.628	0.467
293.15	0.2538	807.13	0.459
293.15	0.313	814.554	0.448
293.15	0.3558	820.06	0.439
293.15	0.4148	827.869	0.428
293.15	0.4472	832.261	0.422
293.15	0.5008	839.656	0.411
293.15	0.5451	845.938	0.401
293.15	0.6077	855.06	0.388
293.15	0.6566	862.46	0.377
293.15	0.7143	871.507	0.364
293.15	0.7514	877.544	0.355
293.15	0.8016	885.967	0.343
293.15	0.856	895.367	0.329
293.15	0.904	903.8	0.317
293.15	0.9553	912.677	0.304
298.15	0.1122	786.535	0.489
298.15	0.1665	792.738	0.48
298.15	0.2084	797.652	0.473
298.15	0.2538	803.115	0.464
298.15	0.313	810.479	0.454
298.15	0.3558	815.967	0.446
298.15	0.4148	823.733	0.434
298.15	0.4472	828.099	0.428
298.15	0.5008	835.454	0.417
298.15	0.5451	841.706	0.408
298.15	0.6077	850.786	0.394
298.15	0.6566	858.15	0.384
298.15	0.7143	867.175	0.37
298.15	0.7514	873.195	0.362
298.15	0.8016	881.597	0.349
298.15	0.856	890.981	0.336
298.15	0.904	899.4	0.323
298.15	0.9553	908.256	0.31
303.15	0.1122	782.639	0.495
303.15	0.1665	788.781	0.486
303.15	0.2084	793.661	0.478
303.15	0.2538	799.083	0.47
303.15	0.313	806.404	0.46
303.15	0.3558	811.844	0.452
303.15	0.4148	819.576	0.44
303.15	0.4472	823.913	0.434
303.15	0.5008	831.251	0.423
303.15	0.5451	837.473	0.414
303.15	0.6077	846.555	0.401
303.15	0.6566	853.912	0.39
303.15	0.7143	862.905	0.377
303.15	0.7514	868.91	0.368
303.15	0.8016	877.285	0.356
303.15	0.856	886.63	0.342
303.15	0.904	894.989	0.33
303.15	0.9553	903.826	0.317
308.15	0.1122	778.737	0.501
308.15	0.1665	784.827	0.492
308.15	0.2084	789.668	0.484
308.15	0.2538	795.057	0.476
308.15	0.313	802.329	0.466
308.15	0.3558	807.734	0.458
308.15	0.4148	815.399	0.446
308.15	0.4472	819.704	0.44
308.15	0.5008	826.995	0.429
308.15	0.5451	833.167	0.42
308.15	0.6077	842.165	0.407
308.15	0.6566	849.462	0.396
308.15	0.7143	858.43	0.383
308.15	0.7514	864.43	0.374
308.15	0.8016	872.799	0.362
308.15	0.856	882.174	0.349
308.15	0.904	890.566	0.336
308.15	0.9553	899.408	0.323
