Measured thermophysical data. Effect of Temperature on the Change of Refractive Index on Mixing for Butyl Acetate + Aromatic Hydrocarbons
Source: Int. J. Thermophys., 2005, 10.1007/s10765-005-8096-3
Compound 1: butyl ethanoate, C6H12O2, InChI=1S/C6H12O2/c1-3-4-5-8-6(2)7/h3-5H2,1-2H3
Compound 2: toluene, C7H8, InChI=1S/C7H8/c1-7-5-3-2-4-6-7/h2-6H,1H3
Compound 3: ethylbenzene, C8H10, InChI=1S/C8H10/c1-2-8-6-4-3-5-7-8/h3-7H,2H2,1H3
Compound 4: 1,4-dimethylbenzene, C8H10, InChI=1S/C8H10/c1-7-3-5-8(2)6-4-7/h3-6H,1-2H3
Compound 5: 1,3,5-trimethylbenzene, C9H12, InChI=1S/C9H12/c1-7-4-8(2)6-9(3)5-7/h4-6H,1-3H3
Compound 6: isopropylbenzene, C9H12, InChI=1S/C9H12/c1-8(2)9-6-4-3-5-7-9/h3-8H,1-2H3
Compound 7: butylbenzene, C10H14, InChI=1S/C10H14/c1-2-3-7-10-8-5-4-6-9-10/h4-6,8-9H,2-3,7H2,1H3
Compound 8: (2-methylpropyl)benzene, C10H14, InChI=1S/C10H14/c1-9(2)8-10-6-4-3-5-7-10/h3-7,9H,8H2,1-2H3
Compound 9: (1,1-dimethylethyl)benzene, C10H14, InChI=1S/C10H14/c1-10(2,3)9-7-5-4-6-8-9/h4-8H,1-3H3

System: butyl ethanoate; phases: Liquid
Property: Refractive index (Na D-line) (Liquid); method: Standard Abbe refractometry
Temperature, K	Pressure, kPa	Refractive index (Na D-line)	uncertainty
298.15	101.325	1.39176	0.00075

System: toluene; phases: Liquid
Property: Refractive index (Na D-line) (Liquid); method: Standard Abbe refractometry
Temperature, K	Pressure, kPa	Refractive index (Na D-line)	uncertainty
298.15	101.325	1.49399	0.00075

System: ethylbenzene; phases: Liquid
Property: Refractive index (Na D-line) (Liquid); method: Standard Abbe refractometry
Temperature, K	Pressure, kPa	Refractive index (Na D-line)	uncertainty
298.15	101.325	1.49316	0.00075

System: 1,4-dimethylbenzene; phases: Liquid
Property: Refractive index (Na D-line) (Liquid); method: Standard Abbe refractometry
Temperature, K	Pressure, kPa	Refractive index (Na D-line)	uncertainty
298.15	101.325	1.49298	0.00075

System: 1,3,5-trimethylbenzene; phases: Liquid
Property: Refractive index (Na D-line) (Liquid); method: Standard Abbe refractometry
Temperature, K	Pressure, kPa	Refractive index (Na D-line)	uncertainty
298.15	101.325	1.49682	0.00075

System: isopropylbenzene; phases: Liquid
Property: Refractive index (Na D-line) (Liquid); method: Standard Abbe refractometry
Temperature, K	Pressure, kPa	Refractive index (Na D-line)	uncertainty
298.15	101.325	1.48869	0.00075

System: butylbenzene; phases: Liquid
Property: Refractive index (Na D-line) (Liquid); method: Standard Abbe refractometry
Temperature, K	Pressure, kPa	Refractive index (Na D-line)	uncertainty
298.15	101.325	1.48735	0.00075

System: (2-methylpropyl)benzene; phases: Liquid
Property: Refractive index (Na D-line) (Liquid); method: Standard Abbe refractometry
Temperature, K	Pressure, kPa	Refractive index (Na D-line)	uncertainty
298.15	101.325	1.48397	0.00075

System: (1,1-dimethylethyl)benzene; phases: Liquid
Property: Refractive index (Na D-line) (Liquid); method: Standard Abbe refractometry
Temperature, K	Pressure, kPa	Refractive index (Na D-line)	uncertainty
298.15	101.325	1.49003	0.00075

System: toluene + butyl ethanoate; phases: Liquid
Fixed: Pressure, kPa = 101
Property: Refractive index (Na D-line) (Liquid); method: Standard Abbe refractometry
Mole fraction of butyl ethanoate	Temperature, K	Refractive index (Na D-line)	uncertainty
0.0499	293.15	1.49044	0.00073
0.0499	298.15	1.48757	0.00073
0.0499	303.15	1.48472	0.00073
0.0499	308.15	1.4818	0.00073
0.0499	313.15	1.47891	0.00073
0.0998	293.15	1.48428	0.00072
0.0998	298.15	1.48149	0.00072
0.0998	303.15	1.47861	0.00073
0.0998	308.15	1.47573	0.00073
0.0998	313.15	1.47285	0.00072
0.15	293.15	1.47815	0.00072
0.15	298.15	1.47538	0.00072
0.15	303.15	1.47251	0.00073
0.15	308.15	1.46966	0.00072
0.15	313.15	1.46684	0.00071
0.2001	293.15	1.47222	0.00072
0.2001	298.15	1.46948	0.00071
0.2001	303.15	1.46668	0.00072
0.2001	308.15	1.46382	0.00072
0.2001	313.15	1.46101	0.00071
0.2502	293.15	1.46644	0.00073
0.2502	298.15	1.46358	0.00072
0.2502	303.15	1.46079	0.0007
0.2502	308.15	1.45814	0.0007
0.2502	313.15	1.45535	0.0007
0.2985	293.15	1.461	0.00071
0.2985	298.15	1.45826	0.00071
0.2985	303.15	1.45547	0.00071
0.2985	308.15	1.45277	0.0007
0.2985	313.15	1.4501	0.0007
0.3447	293.15	1.4559	0.00071
0.3447	298.15	1.45318	0.00071
0.3447	303.15	1.45041	0.00071
0.3447	308.15	1.44769	0.00071
0.3447	313.15	1.44494	0.0007
0.4011	293.15	1.4498	0.00072
0.4011	298.15	1.44705	0.00071
0.4011	303.15	1.4443	0.00071
0.4011	308.15	1.44161	0.0007
0.4011	313.15	1.4389	0.00069
0.4468	293.15	1.44504	0.0007
0.4468	298.15	1.44235	0.0007
0.4468	303.15	1.4397	0.00071
0.4468	308.15	1.43691	0.00071
0.4468	313.15	1.43423	0.0007
0.4994	293.15	1.43964	0.00071
0.4994	298.15	1.43696	0.0007
0.4994	303.15	1.4343	0.0007
0.4994	308.15	1.43157	0.0007
0.4994	313.15	1.42895	0.00069
0.5524	293.15	1.4343	0.0007
0.5524	298.15	1.43166	0.00069
0.5524	303.15	1.42902	0.0007
0.5524	308.15	1.42632	0.0007
0.5524	313.15	1.42368	0.00069
0.5999	293.15	1.42964	0.00071
0.5999	298.15	1.42695	0.0007
0.5999	303.15	1.42432	0.0007
0.5999	308.15	1.42164	0.00069
0.5999	313.15	1.41904	0.00068
0.6517	293.15	1.42468	0.00069
0.6517	298.15	1.42207	0.00069
0.6517	303.15	1.41943	0.0007
0.6517	308.15	1.41676	0.00069
0.6517	313.15	1.41415	0.00068
0.7	293.15	1.42017	0.00069
0.7	298.15	1.41756	0.00069
0.7	303.15	1.41498	0.00069
0.7	308.15	1.41233	0.00069
0.7	313.15	1.40974	0.00068
0.7516	293.15	1.41545	0.00069
0.7516	298.15	1.41287	0.00069
0.7516	303.15	1.41026	0.00068
0.7516	308.15	1.40773	0.00068
0.7516	313.15	1.40511	0.00068
0.7972	293.15	1.41141	0.00068
0.7972	298.15	1.40888	0.00068
0.7972	303.15	1.40629	0.00068
0.7972	308.15	1.40371	0.00068
0.7972	313.15	1.4012	0.00068
0.8404	293.15	1.4076	0.00068
0.8404	298.15	1.40508	0.00068
0.8404	303.15	1.4025	0.0007
0.8404	308.15	1.39992	0.00068
0.8404	313.15	1.39741	0.00066
0.8971	293.15	1.40273	0.00068
0.8971	298.15	1.40025	0.00067
0.8971	303.15	1.39777	0.00068
0.8971	308.15	1.39518	0.00068
0.8971	313.15	1.39265	0.00066
0.9449	293.15	1.39881	0.00067
0.9449	298.15	1.3963	0.00067
0.9449	303.15	1.39384	0.00067
0.9449	308.15	1.39133	0.00067
0.9449	313.15	1.38884	0.00067

System: ethylbenzene + butyl ethanoate; phases: Liquid
Fixed: Pressure, kPa = 101
Property: Refractive index (Na D-line) (Liquid); method: Standard Abbe refractometry
Mole fraction of butyl ethanoate	Temperature, K	Refractive index (Na D-line)	uncertainty
0.0544	293.15	1.48984	0.0007
0.0544	298.15	1.48716	0.0007
0.0544	303.15	1.48442	0.0007
0.0544	308.15	1.48172	0.0007
0.0544	313.15	1.47899	0.00071
0.1008	293.15	1.48485	0.00069
0.1008	298.15	1.48219	0.0007
0.1008	303.15	1.47946	0.00071
0.1008	308.15	1.47673	0.00071
0.1008	313.15	1.47401	0.00071
0.1488	293.15	1.4796	0.0007
0.1488	298.15	1.47693	0.0007
0.1488	303.15	1.47418	0.0007
0.1488	308.15	1.47152	0.0007
0.1488	313.15	1.46884	0.0007
0.2024	293.15	1.47382	0.0007
0.2024	298.15	1.47116	0.0007
0.2024	303.15	1.46843	0.0007
0.2024	308.15	1.4658	0.0007
0.2024	313.15	1.4631	0.0007
0.254	293.15	1.46832	0.00069
0.254	298.15	1.46568	0.00069
0.254	303.15	1.46302	0.00069
0.254	308.15	1.46037	0.0007
0.254	313.15	1.45768	0.0007
0.2929	293.15	1.46417	0.0007
0.2929	298.15	1.46155	0.00069
0.2929	303.15	1.4589	0.0007
0.2929	308.15	1.45623	0.0007
0.2929	313.15	1.45354	0.0007
0.3526	293.15	1.45799	0.00069
0.3526	298.15	1.45536	0.0007
0.3526	303.15	1.45263	0.0007
0.3526	308.15	1.45	0.0007
0.3526	313.15	1.44729	0.0007
0.3989	293.15	1.45314	0.00069
0.3989	298.15	1.45054	0.0007
0.3989	303.15	1.44782	0.00069
0.3989	308.15	1.44526	0.00069
0.3989	313.15	1.44253	0.0007
0.4448	293.15	1.44842	0.00069
0.4448	298.15	1.44582	0.00069
0.4448	303.15	1.44315	0.00069
0.4448	308.15	1.44053	0.00069
0.4448	313.15	1.43785	0.0007
0.5021	293.15	1.44254	0.00068
0.5021	298.15	1.43999	0.00069
0.5021	303.15	1.43733	0.00069
0.5021	308.15	1.43472	0.00069
0.5021	313.15	1.43207	0.00069
0.5505	293.15	1.43764	0.00068
0.5505	298.15	1.43508	0.00069
0.5505	303.15	1.43242	0.00069
0.5505	308.15	1.42983	0.00069
0.5505	313.15	1.4272	0.00069
0.6041	293.15	1.43221	0.00068
0.6041	298.15	1.42967	0.00069
0.6041	303.15	1.42703	0.00069
0.6041	308.15	1.42449	0.00068
0.6041	313.15	1.42191	0.00069
0.6456	293.15	1.42806	0.00068
0.6456	298.15	1.42552	0.00068
0.6456	303.15	1.42292	0.00068
0.6456	308.15	1.42036	0.00068
0.6456	313.15	1.41779	0.00068
0.7003	293.15	1.42266	0.00068
0.7003	298.15	1.42015	0.00068
0.7003	303.15	1.41759	0.00068
0.7003	308.15	1.41507	0.00068
0.7003	313.15	1.41252	0.00068
0.7555	293.15	1.41729	0.00067
0.7555	298.15	1.41481	0.00067
0.7555	303.15	1.41224	0.00068
0.7555	308.15	1.40974	0.00067
0.7555	313.15	1.4072	0.00067
0.8016	293.15	1.41282	0.00067
0.8016	298.15	1.41035	0.00067
0.8016	303.15	1.40784	0.00067
0.8016	308.15	1.40537	0.00067
0.8016	313.15	1.40283	0.00068
0.8511	293.15	1.40813	0.00067
0.8511	298.15	1.40566	0.00067
0.8511	303.15	1.4032	0.00067
0.8511	308.15	1.40068	0.00067
0.8511	313.15	1.39815	0.00067
0.9009	293.15	1.40339	0.00066
0.9009	298.15	1.40097	0.00066
0.9009	303.15	1.39849	0.00067
0.9009	308.15	1.39597	0.00067
0.9009	313.15	1.39349	0.00066
0.9505	293.15	1.39875	0.00066
0.9505	298.15	1.39633	0.00066
0.9505	303.15	1.39386	0.00067
0.9505	308.15	1.39139	0.00066
0.9505	313.15	1.38895	0.00066

System: 1,4-dimethylbenzene + butyl ethanoate; phases: Liquid
Fixed: Pressure, kPa = 101
Property: Refractive index (Na D-line) (Liquid); method: Standard Abbe refractometry
Mole fraction of butyl ethanoate	Temperature, K	Refractive index (Na D-line)	uncertainty
0.0494	293.15	1.49045	0.0007
0.0494	298.15	1.48779	0.0007
0.0494	303.15	1.48504	0.0007
0.0494	308.15	1.48238	0.00069
0.0494	313.15	1.47977	0.00069
0.1014	293.15	1.48487	0.00071
0.1014	298.15	1.48216	0.00071
0.1014	303.15	1.4794	0.00069
0.1014	308.15	1.47685	0.00069
0.1014	313.15	1.47409	0.0007
0.1494	293.15	1.4798	0.0007
0.1494	298.15	1.4771	0.0007
0.1494	303.15	1.47436	0.0007
0.1494	308.15	1.47174	0.0007
0.1494	313.15	1.46903	0.0007
0.2012	293.15	1.47424	0.00071
0.2012	298.15	1.47153	0.00071
0.2012	303.15	1.46878	0.00069
0.2012	308.15	1.46623	0.00069
0.2012	313.15	1.46356	0.0007
0.248	293.15	1.46931	0.0007
0.248	298.15	1.46663	0.0007
0.248	303.15	1.46387	0.00069
0.248	308.15	1.46134	0.00069
0.248	313.15	1.45863	0.0007
0.3077	293.15	1.46309	0.0007
0.3077	298.15	1.46041	0.0007
0.3077	303.15	1.45768	0.00069
0.3077	308.15	1.45514	0.00069
0.3077	313.15	1.45247	0.0007
0.3519	293.15	1.45847	0.0007
0.3519	298.15	1.45583	0.0007
0.3519	303.15	1.45312	0.00069
0.3519	308.15	1.45058	0.00069
0.3519	313.15	1.44789	0.0007
0.404	293.15	1.45307	0.00069
0.404	298.15	1.45044	0.0007
0.404	303.15	1.44776	0.00069
0.404	308.15	1.44522	0.00068
0.404	313.15	1.44259	0.00069
0.4519	293.15	1.44815	0.00069
0.4519	298.15	1.44554	0.00069
0.4519	303.15	1.44286	0.00069
0.4519	308.15	1.44032	0.00068
0.4519	313.15	1.4377	0.00069
0.4999	293.15	1.44322	0.00069
0.4999	298.15	1.44061	0.00069
0.4999	303.15	1.43796	0.00069
0.4999	308.15	1.43542	0.00068
0.4999	313.15	1.43282	0.00068
0.5505	293.15	1.43808	0.00069
0.5505	298.15	1.4355	0.00069
0.5505	303.15	1.43288	0.00068
0.5505	308.15	1.43034	0.00068
0.5505	313.15	1.42775	0.00069
0.5991	293.15	1.43317	0.00068
0.5991	298.15	1.4306	0.00069
0.5991	303.15	1.42798	0.00068
0.5991	308.15	1.42546	0.00068
0.5991	313.15	1.42286	0.00068
0.6518	293.15	1.42787	0.00068
0.6518	298.15	1.42531	0.00068
0.6518	303.15	1.42272	0.00068
0.6518	308.15	1.42021	0.00068
0.6518	313.15	1.41762	0.00068
0.6993	293.15	1.42315	0.00068
0.6993	298.15	1.42063	0.00068
0.6993	303.15	1.41806	0.00068
0.6993	308.15	1.41551	0.00068
0.6993	313.15	1.41295	0.00068
0.749	293.15	1.41825	0.00068
0.749	298.15	1.41572	0.00068
0.749	303.15	1.41319	0.00068
0.749	308.15	1.41066	0.00068
0.749	313.15	1.40812	0.00068
0.799	293.15	1.41333	0.00067
0.799	298.15	1.41087	0.00067
0.799	303.15	1.40834	0.00068
0.799	308.15	1.40581	0.00068
0.799	313.15	1.40327	0.00067
0.8519	293.15	1.4083	0.00067
0.8519	298.15	1.40578	0.00067
0.8519	303.15	1.40327	0.00067
0.8519	308.15	1.40076	0.00067
0.8519	313.15	1.39826	0.00067
0.8979	293.15	1.40384	0.00067
0.8979	298.15	1.40137	0.00067
0.8979	303.15	1.39885	0.00067
0.8979	308.15	1.39641	0.00067
0.8979	313.15	1.3939	0.00067
0.9489	293.15	1.39894	0.00066
0.9489	298.15	1.39654	0.00066
0.9489	303.15	1.39405	0.00067
0.9489	308.15	1.39155	0.00067
0.9489	313.15	1.3891	0.00066

System: 1,3,5-trimethylbenzene + butyl ethanoate; phases: Liquid
Fixed: Pressure, kPa = 101
Property: Refractive index (Na D-line) (Liquid); method: Standard Abbe refractometry
Mole fraction of butyl ethanoate	Temperature, K	Refractive index (Na D-line)	uncertainty
0.0516	293.15	1.49409	0.00067
0.0516	298.15	1.4916	0.00067
0.0516	303.15	1.48907	0.00068
0.0516	308.15	1.48654	0.00068
0.0516	313.15	1.48399	0.00068
0.1002	293.15	1.48903	0.00067
0.1002	298.15	1.4866	0.00067
0.1002	303.15	1.48406	0.00067
0.1002	308.15	1.4816	0.00068
0.1002	313.15	1.47894	0.00069
0.1506	293.15	1.48392	0.00067
0.1506	298.15	1.48139	0.00068
0.1506	303.15	1.47885	0.00068
0.1506	308.15	1.47632	0.00068
0.1506	313.15	1.47373	0.00068
0.2009	293.15	1.4787	0.00067
0.2009	298.15	1.47618	0.00067
0.2009	303.15	1.47366	0.00068
0.2009	308.15	1.47112	0.00068
0.2009	313.15	1.4686	0.00068
0.2516	293.15	1.47339	0.00067
0.2516	298.15	1.4709	0.00067
0.2516	303.15	1.46844	0.00067
0.2516	308.15	1.46589	0.00068
0.2516	313.15	1.46337	0.00068
0.2995	293.15	1.4684	0.00067
0.2995	298.15	1.46588	0.00067
0.2995	303.15	1.46345	0.00067
0.2995	308.15	1.46088	0.00068
0.2995	313.15	1.45835	0.00067
0.3481	293.15	1.46333	0.00067
0.3481	298.15	1.46081	0.00067
0.3481	303.15	1.45838	0.00067
0.3481	308.15	1.4558	0.00068
0.3481	313.15	1.45332	0.00067
0.3998	293.15	1.4579	0.00067
0.3998	298.15	1.45539	0.00067
0.3998	303.15	1.45292	0.00067
0.3998	308.15	1.45039	0.00068
0.3998	313.15	1.44787	0.00067
0.4499	293.15	1.45266	0.00067
0.4499	298.15	1.45014	0.00067
0.4499	303.15	1.44772	0.00067
0.4499	308.15	1.44513	0.00068
0.4499	313.15	1.44264	0.00067
0.5012	293.15	1.44725	0.00068
0.5012	298.15	1.44474	0.00067
0.5012	303.15	1.44227	0.00067
0.5012	308.15	1.43973	0.00067
0.5012	313.15	1.43728	0.00067
0.5517	293.15	1.44194	0.00068
0.5517	298.15	1.43941	0.00067
0.5517	303.15	1.43693	0.00067
0.5517	308.15	1.43441	0.00067
0.5517	313.15	1.43194	0.00067
0.599	293.15	1.43693	0.00068
0.599	298.15	1.4344	0.00067
0.599	303.15	1.43191	0.00067
0.599	308.15	1.42937	0.00067
0.599	313.15	1.42693	0.00066
0.6518	293.15	1.43134	0.00067
0.6518	298.15	1.42882	0.00067
0.6518	303.15	1.42637	0.00067
0.6518	308.15	1.42379	0.00067
0.6518	313.15	1.42135	0.00066
0.702	293.15	1.42599	0.00067
0.702	298.15	1.42348	0.00067
0.702	303.15	1.42096	0.00067
0.702	308.15	1.41847	0.00067
0.702	313.15	1.41604	0.00066
0.7495	293.15	1.42089	0.00067
0.7495	298.15	1.41842	0.00067
0.7495	303.15	1.41595	0.00067
0.7495	308.15	1.41342	0.00067
0.7495	313.15	1.41096	0.00066
0.8007	293.15	1.41541	0.00067
0.8007	298.15	1.41296	0.00066
0.8007	303.15	1.4105	0.00067
0.8007	308.15	1.40803	0.00067
0.8007	313.15	1.40553	0.00067
0.8531	293.15	1.40984	0.00066
0.8531	298.15	1.40738	0.00067
0.8531	303.15	1.40488	0.00067
0.8531	308.15	1.40245	0.00066
0.8531	313.15	1.39998	0.00067
0.8998	293.15	1.40482	0.00066
0.8998	298.15	1.4024	0.00066
0.8998	303.15	1.39997	0.00066
0.8998	308.15	1.39751	0.00067
0.8998	313.15	1.39502	0.00067
0.9494	293.15	1.39954	0.00066
0.9494	298.15	1.3971	0.00066
0.9494	303.15	1.39467	0.00066
0.9494	308.15	1.39225	0.00067
0.9494	313.15	1.38972	0.00068

System: isopropylbenzene + butyl ethanoate; phases: Liquid
Fixed: Pressure, kPa = 101
Property: Refractive index (Na D-line) (Liquid); method: Standard Abbe refractometry
Mole fraction of butyl ethanoate	Temperature, K	Refractive index (Na D-line)	uncertainty
0.0521	293.15	1.48648	0.00069
0.0521	298.15	1.48385	0.00069
0.0521	303.15	1.48124	0.00068
0.0521	308.15	1.47872	0.00069
0.0521	313.15	1.47599	0.00071
0.0998	293.15	1.48203	0.00069
0.0998	298.15	1.47941	0.00069
0.0998	303.15	1.47677	0.00068
0.0998	308.15	1.47424	0.00069
0.0998	313.15	1.47156	0.0007
0.151	293.15	1.47724	0.00069
0.151	298.15	1.47459	0.00069
0.151	303.15	1.47198	0.00068
0.151	308.15	1.46948	0.00068
0.151	313.15	1.4668	0.0007
0.2043	293.15	1.47219	0.00069
0.2043	298.15	1.46954	0.00069
0.2043	303.15	1.46694	0.00068
0.2043	308.15	1.46442	0.00068
0.2043	313.15	1.46178	0.00069
0.2496	293.15	1.4679	0.00069
0.2496	298.15	1.46525	0.00069
0.2496	303.15	1.46266	0.00068
0.2496	308.15	1.46014	0.00068
0.2496	313.15	1.45753	0.00069
0.3036	293.15	1.46273	0.00069
0.3036	298.15	1.46014	0.00068
0.3036	303.15	1.45758	0.00068
0.3036	308.15	1.45505	0.00068
0.3036	313.15	1.45243	0.00069
0.3578	293.15	1.45755	0.00068
0.3578	298.15	1.45496	0.00068
0.3578	303.15	1.45242	0.00068
0.3578	308.15	1.44988	0.00068
0.3578	313.15	1.44725	0.00069
0.4021	293.15	1.45329	0.00069
0.4021	298.15	1.45068	0.00068
0.4021	303.15	1.44815	0.00068
0.4021	308.15	1.44562	0.00068
0.4021	313.15	1.44301	0.00069
0.4514	293.15	1.4485	0.00068
0.4514	298.15	1.44593	0.00068
0.4514	303.15	1.44338	0.00068
0.4514	308.15	1.44086	0.00068
0.4514	313.15	1.43827	0.00069
0.4994	293.15	1.44384	0.00068
0.4994	298.15	1.44127	0.00068
0.4994	303.15	1.43873	0.00068
0.4994	308.15	1.43623	0.00068
0.4994	313.15	1.43363	0.00069
0.555	293.15	1.43843	0.00068
0.555	298.15	1.43587	0.00068
0.555	303.15	1.43334	0.00068
0.555	308.15	1.43083	0.00068
0.555	313.15	1.42824	0.00069
0.6017	293.15	1.43384	0.00068
0.6017	298.15	1.4313	0.00068
0.6017	303.15	1.42878	0.00067
0.6017	308.15	1.42629	0.00068
0.6017	313.15	1.42372	0.00069
0.65	293.15	1.42906	0.00067
0.65	298.15	1.42655	0.00067
0.65	303.15	1.42403	0.00067
0.65	308.15	1.42154	0.00068
0.65	313.15	1.41898	0.00068
0.6996	293.15	1.42417	0.00067
0.6996	298.15	1.42165	0.00067
0.6996	303.15	1.41914	0.00067
0.6996	308.15	1.41673	0.00067
0.6996	313.15	1.41413	0.00069
0.7493	293.15	1.41919	0.00067
0.7493	298.15	1.4167	0.00067
0.7493	303.15	1.41421	0.00067
0.7493	308.15	1.41175	0.00067
0.7493	313.15	1.40924	0.00068
0.8007	293.15	1.4141	0.00067
0.8007	298.15	1.41161	0.00067
0.8007	303.15	1.40915	0.00067
0.8007	308.15	1.40668	0.00067
0.8007	313.15	1.40412	0.00068
0.8497	293.15	1.4092	0.00067
0.8497	298.15	1.40674	0.00067
0.8497	303.15	1.40425	0.00067
0.8497	308.15	1.4018	0.00067
0.8497	313.15	1.39927	0.00068
0.8992	293.15	1.40425	0.00066
0.8992	298.15	1.4018	0.00067
0.8992	303.15	1.39931	0.00066
0.8992	308.15	1.39691	0.00067
0.8992	313.15	1.39437	0.00067
0.95	293.15	1.39913	0.00065
0.95	298.15	1.39675	0.00066
0.95	303.15	1.39426	0.00066
0.95	308.15	1.39185	0.00066
0.95	313.15	1.3894	0.0007

System: butylbenzene + butyl ethanoate; phases: Liquid
Fixed: Pressure, kPa = 101
Property: Refractive index (Na D-line) (Liquid); method: Standard Abbe refractometry
Mole fraction of butyl ethanoate	Temperature, K	Refractive index (Na D-line)	uncertainty
0.049	293.15	1.48578	0.00065
0.049	298.15	1.48339	0.00066
0.049	303.15	1.48091	0.00066
0.049	308.15	1.47847	0.00067
0.049	313.15	1.47595	0.00067
0.1016	293.15	1.48141	0.00067
0.1016	298.15	1.47885	0.00066
0.1016	303.15	1.47649	0.00067
0.1016	308.15	1.47387	0.00067
0.1016	313.15	1.47154	0.00065
0.1545	293.15	1.47686	0.00066
0.1545	298.15	1.47443	0.00066
0.1545	303.15	1.47201	0.00067
0.1545	308.15	1.46946	0.00067
0.1545	313.15	1.46708	0.00066
0.1989	293.15	1.47295	0.00066
0.1989	298.15	1.47054	0.00066
0.1989	303.15	1.46814	0.00067
0.1989	308.15	1.46556	0.00067
0.1989	313.15	1.46318	0.00065
0.2515	293.15	1.46838	0.00066
0.2515	298.15	1.46596	0.00066
0.2515	303.15	1.46358	0.00067
0.2515	308.15	1.461	0.00067
0.2515	313.15	1.45858	0.00066
0.3023	293.15	1.46389	0.00066
0.3023	298.15	1.46143	0.00066
0.3023	303.15	1.45905	0.00067
0.3023	308.15	1.45651	0.00067
0.3023	313.15	1.45403	0.00067
0.3501	293.15	1.45956	0.00066
0.3501	298.15	1.45713	0.00066
0.3501	303.15	1.4547	0.00066
0.3501	308.15	1.45232	0.00067
0.3501	313.15	1.44977	0.00068
0.3997	293.15	1.45505	0.00066
0.3997	298.15	1.45258	0.00066
0.3997	303.15	1.45018	0.00066
0.3997	308.15	1.44769	0.00067
0.3997	313.15	1.44526	0.00067
0.45	293.15	1.45031	0.00066
0.45	298.15	1.44787	0.00066
0.45	303.15	1.44547	0.00066
0.45	308.15	1.44298	0.00067
0.45	313.15	1.44055	0.00066
0.4993	293.15	1.44563	0.00066
0.4993	298.15	1.44318	0.00066
0.4993	303.15	1.44078	0.00066
0.4993	308.15	1.43832	0.00066
0.4993	313.15	1.43589	0.00067
0.5496	293.15	1.44082	0.00066
0.5496	298.15	1.43837	0.00067
0.5496	303.15	1.43591	0.00066
0.5496	308.15	1.43351	0.00066
0.5496	313.15	1.43104	0.00067
0.6004	293.15	1.43586	0.00066
0.6004	298.15	1.43342	0.00066
0.6004	303.15	1.43102	0.00067
0.6004	308.15	1.42848	0.00067
0.6004	313.15	1.42602	0.00067
0.6499	293.15	1.43099	0.00066
0.6499	298.15	1.42852	0.00067
0.6499	303.15	1.42607	0.00067
0.6499	308.15	1.42354	0.00067
0.6499	313.15	1.42107	0.00067
0.6998	293.15	1.42593	0.00067
0.6998	298.15	1.42345	0.00067
0.6998	303.15	1.42099	0.00067
0.6998	308.15	1.41852	0.00066
0.6998	313.15	1.41609	0.00066
0.7517	293.15	1.4207	0.00066
0.7517	298.15	1.41819	0.00067
0.7517	303.15	1.41576	0.00066
0.7517	308.15	1.41331	0.00067
0.7517	313.15	1.41084	0.00067
0.801	293.15	1.41551	0.00066
0.801	298.15	1.41312	0.00066
0.801	303.15	1.4106	0.00067
0.801	308.15	1.40817	0.00066
0.801	313.15	1.40574	0.00066
0.8489	293.15	1.41049	0.00065
0.8489	298.15	1.40806	0.00066
0.8489	303.15	1.40567	0.00066
0.8489	308.15	1.40319	0.00066
0.8489	313.15	1.40078	0.00067
0.8999	293.15	1.40499	0.00066
0.8999	298.15	1.40257	0.00065
0.8999	303.15	1.40021	0.00065
0.8999	308.15	1.39782	0.00066
0.8999	313.15	1.39529	0.00067
0.9493	293.15	1.39969	0.00065
0.9493	298.15	1.39734	0.00066
0.9493	303.15	1.39484	0.00066
0.9493	308.15	1.39244	0.00066
0.9493	313.15	1.39	0.00066

System: butyl ethanoate + (2-methylpropyl)benzene; phases: Liquid
Fixed: Pressure, kPa = 101
Property: Refractive index (Na D-line) (Liquid); method: Standard Abbe refractometry
Mole fraction of butyl ethanoate	Temperature, K	Refractive index (Na D-line)	uncertainty
0.056	293.15	1.48206	0.00066
0.056	298.15	1.47965	0.00067
0.056	303.15	1.47708	0.00069
0.056	308.15	1.47442	0.00067
0.056	313.15	1.47211	0.00064
0.1042	293.15	1.47812	0.00067
0.1042	298.15	1.47565	0.00067
0.1042	303.15	1.4731	0.00067
0.1042	308.15	1.47066	0.00067
0.1042	313.15	1.46813	0.00067
0.1619	293.15	1.47345	0.00067
0.1619	298.15	1.47097	0.00067
0.1619	303.15	1.4685	0.00067
0.1619	308.15	1.46595	0.00067
0.1619	313.15	1.4635	0.00068
0.201	293.15	1.47035	0.00067
0.201	298.15	1.46781	0.00068
0.201	303.15	1.46524	0.00068
0.201	308.15	1.46268	0.00068
0.201	313.15	1.46015	0.00067
0.2486	293.15	1.46644	0.00068
0.2486	298.15	1.46384	0.00068
0.2486	303.15	1.46128	0.00068
0.2486	308.15	1.45868	0.00068
0.2486	313.15	1.45618	0.00068
0.3027	293.15	1.4618	0.00068
0.3027	298.15	1.45922	0.00069
0.3027	303.15	1.45658	0.00068
0.3027	308.15	1.45405	0.00067
0.3027	313.15	1.45156	0.00067
0.3619	293.15	1.45664	0.00069
0.3619	298.15	1.45401	0.00068
0.3619	303.15	1.45147	0.00067
0.3619	308.15	1.44897	0.00068
0.3619	313.15	1.44641	0.00068
0.3994	293.15	1.4533	0.00068
0.3994	298.15	1.45072	0.00068
0.3994	303.15	1.44816	0.00068
0.3994	308.15	1.44564	0.00068
0.3994	313.15	1.4431	0.00068
0.4537	293.15	1.44838	0.00067
0.4537	298.15	1.44587	0.00068
0.4537	303.15	1.44328	0.00068
0.4537	308.15	1.44077	0.00067
0.4537	313.15	1.43826	0.00068
0.5056	293.15	1.44366	0.00067
0.5056	298.15	1.4411	0.00068
0.5056	303.15	1.43853	0.00068
0.5056	308.15	1.43602	0.00067
0.5056	313.15	1.43356	0.00067
0.5506	293.15	1.43942	0.00067
0.5506	298.15	1.43693	0.00067
0.5506	303.15	1.43443	0.00068
0.5506	308.15	1.43187	0.00067
0.5506	313.15	1.4294	0.00067
0.5973	293.15	1.43506	0.00067
0.5973	298.15	1.43254	0.00067
0.5973	303.15	1.43002	0.00067
0.5973	308.15	1.4275	0.00067
0.5973	313.15	1.42498	0.00068
0.6485	293.15	1.43012	0.00067
0.6485	298.15	1.42758	0.00068
0.6485	303.15	1.42505	0.00067
0.6485	308.15	1.42256	0.00067
0.6485	313.15	1.42003	0.00068
0.6954	293.15	1.42551	0.00067
0.6954	298.15	1.423	0.00067
0.6954	303.15	1.42052	0.00067
0.6954	308.15	1.41799	0.00067
0.6954	313.15	1.41549	0.00067
0.751	293.15	1.41999	0.00066
0.751	298.15	1.41754	0.00067
0.751	303.15	1.41506	0.00067
0.751	308.15	1.41255	0.00067
0.751	313.15	1.41004	0.00068
0.7981	293.15	1.41525	0.00066
0.7981	298.15	1.41278	0.00067
0.7981	303.15	1.4103	0.00067
0.7981	308.15	1.40782	0.00067
0.7981	313.15	1.40532	0.00067
0.8469	293.15	1.41021	0.00066
0.8469	298.15	1.40779	0.00066
0.8469	303.15	1.40535	0.00066
0.8469	308.15	1.4029	0.00067
0.8469	313.15	1.40036	0.00068
0.8995	293.15	1.40482	0.00066
0.8995	298.15	1.40235	0.00066
0.8995	303.15	1.39997	0.00065
0.8995	308.15	1.39757	0.00067
0.8995	313.15	1.39493	0.00069
0.9482	293.15	1.39966	0.00065
0.9482	298.15	1.3973	0.00066
0.9482	303.15	1.39479	0.00067
0.9482	308.15	1.39237	0.00066
0.9482	313.15	1.38994	0.00066

System: (1,1-dimethylethyl)benzene + butyl ethanoate; phases: Liquid
Fixed: Pressure, kPa = 101
Property: Refractive index (Na D-line) (Liquid); method: Standard Abbe refractometry
Mole fraction of butyl ethanoate	Temperature, K	Refractive index (Na D-line)	uncertainty
0.0517	293.15	1.48818	0.00068
0.0517	298.15	1.48564	0.00066
0.0517	303.15	1.48328	0.00067
0.0517	308.15	1.48061	0.00068
0.0517	313.15	1.47812	0.00067
0.1	293.15	1.48411	0.00067
0.1	298.15	1.48154	0.00068
0.1	303.15	1.47905	0.00067
0.1	308.15	1.47649	0.00069
0.1	313.15	1.47384	0.00068
0.1522	293.15	1.4795	0.00067
0.1522	298.15	1.47702	0.00067
0.1522	303.15	1.47452	0.00067
0.1522	308.15	1.47204	0.00067
0.1522	313.15	1.46953	0.00069
0.1995	293.15	1.47531	0.00068
0.1995	298.15	1.47273	0.00067
0.1995	303.15	1.47031	0.00067
0.1995	308.15	1.4677	0.00068
0.1995	313.15	1.46521	0.00066
0.2511	293.15	1.47077	0.00069
0.2511	298.15	1.46811	0.00068
0.2511	303.15	1.4657	0.00067
0.2511	308.15	1.46309	0.00068
0.2511	313.15	1.46062	0.00067
0.3008	293.15	1.46621	0.00068
0.3008	298.15	1.4636	0.00067
0.3008	303.15	1.4612	0.00067
0.3008	308.15	1.45859	0.00068
0.3008	313.15	1.45614	0.00067
0.3516	293.15	1.46145	0.00068
0.3516	298.15	1.45891	0.00067
0.3516	303.15	1.45652	0.00067
0.3516	308.15	1.45387	0.00068
0.3516	313.15	1.45137	0.00067
0.4061	293.15	1.45636	0.00067
0.4061	298.15	1.45381	0.00067
0.4061	303.15	1.45141	0.00067
0.4061	308.15	1.4488	0.00068
0.4061	313.15	1.44635	0.00067
0.4489	293.15	1.45221	0.00068
0.4489	298.15	1.44966	0.00067
0.4489	303.15	1.44727	0.00067
0.4489	308.15	1.4447	0.00067
0.4489	313.15	1.44226	0.00067
0.4994	293.15	1.44728	0.00067
0.4994	298.15	1.44477	0.00067
0.4994	303.15	1.44234	0.00067
0.4994	308.15	1.43978	0.00067
0.4994	313.15	1.43736	0.00066
0.5499	293.15	1.44227	0.00067
0.5499	298.15	1.43976	0.00067
0.5499	303.15	1.43736	0.00067
0.5499	308.15	1.43476	0.00067
0.5499	313.15	1.43237	0.00066
0.607	293.15	1.43649	0.00067
0.607	298.15	1.434	0.00067
0.607	303.15	1.43155	0.00067
0.607	308.15	1.42904	0.00067
0.607	313.15	1.42656	0.00068
0.6496	293.15	1.43209	0.00068
0.6496	298.15	1.42958	0.00067
0.6496	303.15	1.42717	0.00067
0.6496	308.15	1.42461	0.00068
0.6496	313.15	1.42212	0.00067
0.7006	293.15	1.42687	0.00066
0.7006	298.15	1.42436	0.00067
0.7006	303.15	1.42195	0.00067
0.7006	308.15	1.41938	0.00068
0.7006	313.15	1.41686	0.00068
0.7489	293.15	1.42175	0.00067
0.7489	298.15	1.41927	0.00067
0.7489	303.15	1.41683	0.00067
0.7489	308.15	1.41427	0.00068
0.7489	313.15	1.41174	0.00067
0.8013	293.15	1.41615	0.00067
0.8013	298.15	1.41367	0.00067
0.8013	303.15	1.41122	0.00067
0.8013	308.15	1.40871	0.00067
0.8013	313.15	1.40625	0.00067
0.8509	293.15	1.41079	0.00067
0.8509	298.15	1.40829	0.00066
0.8509	303.15	1.40593	0.00067
0.8509	308.15	1.40331	0.00067
0.8509	313.15	1.4009	0.00066
0.9005	293.15	1.40535	0.00066
0.9005	298.15	1.40288	0.00066
0.9005	303.15	1.40048	0.00066
0.9005	308.15	1.39799	0.00067
0.9005	313.15	1.39547	0.00067
0.95	293.15	1.39982	0.00066
0.95	298.15	1.39742	0.00066
0.95	303.15	1.3949	0.00066
0.95	308.15	1.39263	0.00066
0.95	313.15	1.39007	0.00068
