Measured thermophysical data. Measurements of the Thermal Conductivity of Molten Lead Using a New Transient Hot-Wire Sensor
Source: Int. J. Thermophys., 2007, 10.1007/s10765-007-0182-2
Compound 1: lead, Pb, InChI=1S/Pb

System: lead; phases: Liquid
Fixed: Pressure, kPa = 101.325
Property: Thermal conductivity, W/m/K (Liquid); method: HOTW:elcondl
Temperature, K	Thermal conductivity, W/m/K	uncertainty
620.3	16.2	1
678.1	17	1.1
729.5	17.6	1.1
