Measured thermophysical data. Volumetric, Viscometric, Ultrasonic, and Refractive Index Properties of Liquid Mixtures of Benzene with Industrially Important Monomers at Different Temperatures
Source: Int. J. Thermophys., 2009, 10.1007/s10765-009-0562-x
Compound 1: methyl propenoate, C4H6O2, InChI=1S/C4H6O2/c1-3-4(5)6-2/h3H,1H2,2H3
Compound 2: ethyl propenoate, C5H8O2, InChI=1S/C5H8O2/c1-3-5(6)7-4-2/h3H,1,4H2,2H3
Compound 3: butyl 2-propenoate, C7H12O2, InChI=1S/C7H12O2/c1-3-5-6-9-7(8)4-2/h4H,2-3,5-6H2,1H3
Compound 4: styrene, C8H8, InChI=1S/C8H8/c1-2-8-6-4-3-5-7-8/h2-7H,1H2
Compound 5: benzene, C6H6, InChI=1S/C6H6/c1-2-4-6-5-3-1/h1-6H

System: methyl propenoate; phases: Liquid
Fixed: Pressure, kPa = 101.325
Property: Refractive index (Na D-line) (Liquid); method: ABBE::UFactor:4
Temperature, K	Refractive index (Na D-line)	uncertainty
298.15	1.4	0.0013
303.15	1.3979	0.0013
308.15	1.3954	0.0013
313.15	1.3944	0.0013

System: methyl propenoate; phases: Liquid
Fixed: Pressure, kPa = 101
Property: Viscosity, Pa*s (Liquid); method: CAPTUB::UFactor:2
Temperature, K	Viscosity, Pa*s	uncertainty
298.15	0.000461	8e-06
303.15	0.00042	7e-06
308.15	0.000384	7e-06
313.15	0.000357	7e-06

System: methyl propenoate; phases: Liquid
Fixed: Pressure, kPa = 101
Property: Speed of sound, m/s (Liquid); method: LVPAI::UFactor:2
Temperature, K	Speed of sound, m/s	uncertainty
298.15	1194.5	4
303.15	1172.1	4
308.15	1145.6	3.9
313.15	1122.1	3.9

System: methyl propenoate; phases: Liquid
Fixed: Pressure, kPa = 101
Property: Mass density, kg/m3 (Liquid); method: PYCNOM::UFactor:6
Temperature, K	Mass density, kg/m3	uncertainty
298.15	949.2	2
303.15	943.4	2.1
308.15	937.7	2.1
313.15	932	2.2

System: ethyl propenoate; phases: Liquid
Fixed: Pressure, kPa = 101.325
Property: Refractive index (Na D-line) (Liquid); method: ABBE::UFactor:4
Temperature, K	Refractive index (Na D-line)	uncertainty
298.15	1.4049	0.0012
303.15	1.4032	0.0012
308.15	1.4014	0.0012
313.15	1.3999	0.0012

System: ethyl propenoate; phases: Liquid
Fixed: Pressure, kPa = 101
Property: Viscosity, Pa*s (Liquid); method: CAPTUB::UFactor:2
Temperature, K	Viscosity, Pa*s	uncertainty
298.15	0.00053	8e-06
303.15	0.000502	8e-06
308.15	0.000465	7e-06
313.15	0.00042	7e-06

System: ethyl propenoate; phases: Liquid
Fixed: Pressure, kPa = 101
Property: Speed of sound, m/s (Liquid); method: LVPAI::UFactor:2
Temperature, K	Speed of sound, m/s	uncertainty
298.15	1167.5	3.9
303.15	1145.1	3.8
308.15	1118.7	3.8
313.15	1095.1	3.8

System: ethyl propenoate; phases: Liquid
Fixed: Pressure, kPa = 101
Property: Mass density, kg/m3 (Liquid); method: PYCNOM::UFactor:6
Temperature, K	Mass density, kg/m3	uncertainty
298.15	916.2	1.7
303.15	910.6	1.8
308.15	904.9	1.9
313.15	899.8	2

System: butyl 2-propenoate; phases: Liquid
Fixed: Pressure, kPa = 101.325
Property: Refractive index (Na D-line) (Liquid); method: ABBE::UFactor:4
Temperature, K	Refractive index (Na D-line)	uncertainty
298.15	1.4119	0.0012
303.15	1.4102	0.0012
308.15	1.4084	0.0012
313.15	1.4069	0.0012

System: butyl 2-propenoate; phases: Liquid
Fixed: Pressure, kPa = 101
Property: Viscosity, Pa*s (Liquid); method: CAPTUB::UFactor:2
Temperature, K	Viscosity, Pa*s	uncertainty
298.15	0.000838	1.1e-05
303.15	0.000781	1e-05
308.15	0.00073	1e-05
313.15	0.000684	9e-06

System: butyl 2-propenoate; phases: Liquid
Fixed: Pressure, kPa = 101
Property: Speed of sound, m/s (Liquid); method: LVPAI::UFactor:2
Temperature, K	Speed of sound, m/s	uncertainty
298.15	1207.5	3.9
303.15	1185.1	3.9
308.15	1159.3	3.8
313.15	1135.1	3.8

System: butyl 2-propenoate; phases: Liquid
Fixed: Pressure, kPa = 101
Property: Mass density, kg/m3 (Liquid); method: PYCNOM::UFactor:6
Temperature, K	Mass density, kg/m3	uncertainty
298.15	894.1	1.7
303.15	889.2	1.8
308.15	884.4	1.8
313.15	879	1.9

System: styrene; phases: Liquid
Fixed: Pressure, kPa = 101.325
Property: Refractive index (Na D-line) (Liquid); method: ABBE::UFactor:4
Temperature, K	Refractive index (Na D-line)	uncertainty
298.15	1.5456	0.0012
303.15	1.5445	0.0012
308.15	1.5437	0.0012
313.15	1.5429	0.0012

System: styrene; phases: Liquid
Fixed: Pressure, kPa = 101
Property: Viscosity, Pa*s (Liquid); method: CAPTUB::UFactor:2
Temperature, K	Viscosity, Pa*s	uncertainty
298.15	0.000695	9e-06
303.15	0.000654	9e-06
308.15	0.000618	9e-06
313.15	0.000573	8e-06

System: styrene; phases: Liquid
Fixed: Pressure, kPa = 101
Property: Speed of sound, m/s (Liquid); method: LVPAI::UFactor:2
Temperature, K	Speed of sound, m/s	uncertainty
298.15	1383	4
303.15	1360	4
308.15	1334	4
313.15	1310	4

System: styrene; phases: Liquid
Fixed: Pressure, kPa = 101
Property: Mass density, kg/m3 (Liquid); method: PYCNOM::UFactor:6
Temperature, K	Mass density, kg/m3	uncertainty
298.15	901.8	1.7
303.15	897.1	1.8
308.15	892	1.9
313.15	887.3	1.9

System: benzene; phases: Liquid
Fixed: Pressure, kPa = 101.325
Property: Refractive index (Na D-line) (Liquid); method: ABBE:UFactor:4
Temperature, K	Refractive index (Na D-line)	uncertainty
298.15	1.4979	0.0013
303.15	1.4962	0.0013
308.15	1.4944	0.0013
313.15	1.4929	0.0013

System: benzene; phases: Liquid
Fixed: Pressure, kPa = 101
Property: Viscosity, Pa*s (Liquid); method: CAPTUB:UFactor:2
Temperature, K	Viscosity, Pa*s	uncertainty
298.15	0.000603	9e-06
303.15	0.000562	9e-06
308.15	0.000526	8e-06
313.15	0.00048	8e-06

System: benzene; phases: Liquid
Fixed: Pressure, kPa = 101
Property: Speed of sound, m/s (Liquid); method: LVPAI::UFactor:2
Temperature, K	Speed of sound, m/s	uncertainty
298.15	1306	4.1
303.15	1283.6	4.1
308.15	1257.2	4
313.15	1233.6	4

System: benzene; phases: Liquid
Fixed: Pressure, kPa = 101
Property: Mass density, kg/m3 (Liquid); method: PYCNOM::UFactor:6
Temperature, K	Mass density, kg/m3	uncertainty
298.15	873.6	1.8
303.15	870.8	1.9
303.15	868.8	1.9
308.15	865.7	1.9
308.15	863.1	1.9
313.15	861	2
313.15	859.3	2

System: benzene + ethyl propenoate; phases: Liquid
Fixed: Pressure, kPa = 101
Property: Viscosity, Pa*s (Liquid); method: CAPTUB:UFactor:2
Temperature, K	Mole fraction of benzene	Viscosity, Pa*s	uncertainty
298.15	0	0.00053	8e-06
298.15	0.1283	0.000531	8e-06
298.15	0.2137	0.000533	8e-06
298.15	0.3255	0.000537	8e-06
298.15	0.4115	0.000541	8e-06
298.15	0.5361	0.00055	8e-06
298.15	0.6109	0.000558	8e-06
298.15	0.7033	0.000568	8e-06
298.15	0.8074	0.000579	9e-06
298.15	0.9025	0.000591	9e-06
298.15	1	0.000603	9e-06
303.15	0	0.000502	8e-06
303.15	0.1283	0.000499	8e-06
303.15	0.2137	0.0005	8e-06
303.15	0.3255	0.000501	8e-06
303.15	0.4115	0.000502	8e-06
303.15	0.5361	0.000509	8e-06
303.15	0.6109	0.000516	8e-06
303.15	0.7033	0.000524	8e-06
303.15	0.8074	0.000535	8e-06
303.15	0.9025	0.000548	8e-06
303.15	1	0.000562	9e-06
308.15	0	0.000465	7e-06
308.15	0.1283	0.000461	7e-06
308.15	0.2137	0.00046	7e-06
308.15	0.3255	0.000461	7e-06
308.15	0.4115	0.000462	7e-06
308.15	0.5361	0.000466	7e-06
308.15	0.6109	0.000472	8e-06
308.15	0.7033	0.000481	8e-06
308.15	0.8074	0.000495	8e-06
308.15	0.9025	0.000508	8e-06
308.15	1	0.000526	8e-06
313.15	0	0.00042	7e-06
313.15	0.1283	0.000412	7e-06
313.15	0.2137	0.00041	7e-06
313.15	0.3255	0.000411	7e-06
313.15	0.4115	0.000412	7e-06
313.15	0.5361	0.000415	7e-06
313.15	0.6109	0.00042	7e-06
313.15	0.7033	0.000431	7e-06
313.15	0.8074	0.000444	7e-06
313.15	0.9025	0.000458	8e-06
313.15	1	0.00048	8e-06

System: benzene + ethyl propenoate; phases: Liquid
Fixed: Pressure, kPa = 101
Property: Refractive index (Na D-line) (Liquid); method: ABBE:UFactor:4
Temperature, K	Mole fraction of benzene	Refractive index (Na D-line)	uncertainty
298.15	0	1.4049	0.0012
298.15	0.1283	1.411	0.0012
298.15	0.2137	1.4155	0.0012
298.15	0.3255	1.422	0.0012
298.15	0.4115	1.427	0.0012
298.15	0.5361	1.437	0.0013
298.15	0.6109	1.445	0.0013
298.15	0.7033	1.4565	0.0013
298.15	0.8074	1.4706	0.0013
298.15	0.9025	1.4848	0.0013
298.15	1	1.4979	0.0013
303.15	0	1.4032	0.0012
303.15	0.1283	1.408	0.0012
303.15	0.2137	1.4124	0.0012
303.15	0.3255	1.4188	0.0012
303.15	0.4115	1.424	0.0012
303.15	0.5361	1.4336	0.0013
303.15	0.6109	1.4412	0.0013
303.15	0.7033	1.453	0.0013
303.15	0.8074	1.4676	0.0013
303.15	0.9025	1.4809	0.0013
303.15	1	1.4962	0.0013
308.15	0	1.4014	0.0012
308.15	0.1283	1.4044	0.0012
308.15	0.2137	1.4089	0.0012
308.15	0.3255	1.4155	0.0012
308.15	0.4115	1.421	0.0012
308.15	0.5361	1.431	0.0013
308.15	0.6109	1.438	0.0013
308.15	0.7033	1.4495	0.0013
308.15	0.8074	1.4635	0.0013
308.15	0.9025	1.4782	0.0013
308.15	1	1.4944	0.0013
313.15	0	1.3999	0.0012
313.15	0.1283	1.4012	0.0012
313.15	0.2137	1.4055	0.0012
313.15	0.3255	1.4123	0.0012
313.15	0.4115	1.4182	0.0012
313.15	0.5361	1.4281	0.0013
313.15	0.6109	1.4351	0.0013
313.15	0.7033	1.446	0.0013
313.15	0.8074	1.4601	0.0013
313.15	0.9025	1.4746	0.0013
313.15	1	1.4929	0.0013

System: benzene + ethyl propenoate; phases: Liquid
Fixed: Pressure, kPa = 101
Property: Speed of sound, m/s (Liquid); method: LVPAI:UFactor:2
Temperature, K	Mole fraction of benzene	Speed of sound, m/s	uncertainty
298.15	0	1167.5	3.9
298.15	0.1283	1175.2	3.9
298.15	0.2137	1180.3	3.9
298.15	0.3255	1189.5	3.9
298.15	0.4115	1198.5	3.9
298.15	0.5361	1213.1	3.9
298.15	0.6109	1222.8	4
298.15	0.7033	1237.2	4
298.15	0.8074	1255.5	4
298.15	0.9025	1278.3	4
298.15	1	1306	4.1
303.15	0	1145.1	3.8
303.15	0.1283	1151	3.8
303.15	0.2137	1156.5	3.9
303.15	0.3255	1165.8	3.9
303.15	0.4115	1174.5	3.9
303.15	0.5361	1188.9	3.9
303.15	0.6109	1198.9	3.9
303.15	0.7033	1213	4
303.15	0.8074	1230.5	4
303.15	0.9025	1251.2	4
303.15	1	1283.6	4.1
308.15	0	1118.7	3.8
308.15	0.1283	1123.1	3.8
308.15	0.2137	1128.9	3.8
308.15	0.3255	1138	3.9
308.15	0.4115	1146.5	3.9
308.15	0.5361	1160.9	3.9
308.15	0.6109	1170.5	3.9
308.15	0.7033	1184.5	3.9
308.15	0.8074	1202.2	4
308.15	0.9025	1222.5	4
308.15	1	1257.2	4
313.15	0	1095.1	3.8
313.15	0.1283	1099	3.8
313.15	0.2137	1104.6	3.8
313.15	0.3255	1113.5	3.8
313.15	0.4115	1122.5	3.8
313.15	0.5361	1136.5	3.9
313.15	0.6109	1145.9	3.9
313.15	0.7033	1159.9	3.9
313.15	0.8074	1176.9	3.9
313.15	0.9025	1197.1	4
313.15	1	1233.6	4

System: benzene + ethyl propenoate; phases: Liquid
Fixed: Pressure, kPa = 101
Property: Mass density, kg/m3 (Liquid); method: PYCNOM:UFactor:6
Temperature, K	Mole fraction of benzene	Mass density, kg/m3	uncertainty
298.15	0	916.2	1.7
298.15	0.1283	911	1.7
298.15	0.2137	907.4	1.7
298.15	0.3255	902.6	1.8
298.15	0.4115	898.9	1.8
298.15	0.5361	893.6	1.8
298.15	0.6109	890.4	1.8
298.15	0.7033	886.5	1.8
298.15	0.8074	882.3	1.8
298.15	0.9025	878.2	1.8
298.15	1	873.6	1.8
303.15	0	910.6	1.8
303.15	0.1283	905.3	1.8
303.15	0.2137	901.8	1.8
303.15	0.3255	897.1	1.8
303.15	0.4115	893.5	1.8
303.15	0.5361	888.2	1.8
303.15	0.6109	885.1	1.8
303.15	0.7033	881.3	1.8
303.15	0.8074	877.1	1.8
303.15	0.9025	873.1	1.9
303.15	1	868.8	1.9
308.15	0	904.9	1.9
308.15	0.1283	899.4	1.9
308.15	0.2137	895.9	1.9
308.15	0.3255	891.2	1.9
308.15	0.4115	887.6	1.9
308.15	0.5361	882.3	1.9
308.15	0.6109	879.2	1.9
308.15	0.7033	875.4	1.9
308.15	0.8074	871.2	1.9
308.15	0.9025	867.2	1.9
308.15	1	863.1	1.9
313.15	0	899.8	2
313.15	0.1283	894.3	2
313.15	0.2137	890.8	2
313.15	0.3255	886.3	2
313.15	0.4115	882.8	2
313.15	0.5361	877.7	2
313.15	0.6109	874.7	2
313.15	0.7033	871	2
313.15	0.8074	866.9	2
313.15	0.9025	863.1	2
313.15	1	859.3	2

System: benzene + butyl 2-propenoate; phases: Liquid
Fixed: Pressure, kPa = 101
Property: Viscosity, Pa*s (Liquid); method: CAPTUB:UFactor:2
Temperature, K	Mole fraction of benzene	Viscosity, Pa*s	uncertainty
298.15	0	0.000838	1.1e-05
298.15	0.1282	0.000799	1e-05
298.15	0.2182	0.000773	1e-05
298.15	0.2926	0.000749	1e-05
298.15	0.4108	0.000719	1e-05
298.15	0.4964	0.000699	1e-05
298.15	0.5923	0.000679	9e-06
298.15	0.708	0.000658	9e-06
298.15	0.7944	0.000641	9e-06
298.15	0.9032	0.00062	9e-06
298.15	1	0.000603	9e-06
303.15	0	0.000781	1e-05
303.15	0.1282	0.000738	1e-05
303.15	0.2182	0.000709	1e-05
303.15	0.2926	0.000686	9e-06
303.15	0.4108	0.000656	9e-06
303.15	0.4964	0.000636	9e-06
303.15	0.5923	0.000618	9e-06
303.15	0.708	0.000601	9e-06
303.15	0.7944	0.00059	9e-06
303.15	0.9032	0.000574	9e-06
303.15	1	0.000562	9e-06
308.15	0	0.00073	1e-05
308.15	0.1282	0.000683	9e-06
308.15	0.2182	0.000649	9e-06
308.15	0.2926	0.000625	9e-06
308.15	0.4108	0.000595	9e-06
308.15	0.4964	0.000576	8e-06
308.15	0.5923	0.000564	8e-06
308.15	0.708	0.000554	8e-06
308.15	0.7944	0.000545	8e-06
308.15	0.9032	0.000531	8e-06
308.15	1	0.000526	8e-06
313.15	0	0.000684	9e-06
313.15	0.1282	0.00062	9e-06
313.15	0.2182	0.000585	8e-06
313.15	0.2926	0.000565	8e-06
313.15	0.4108	0.000538	8e-06
313.15	0.4964	0.000524	8e-06
313.15	0.5923	0.00051	8e-06
313.15	0.708	0.000501	8e-06
313.15	0.7944	0.000496	8e-06
313.15	0.9032	0.000485	8e-06
313.15	1	0.00048	8e-06

System: benzene + butyl 2-propenoate; phases: Liquid
Fixed: Pressure, kPa = 101
Property: Refractive index (Na D-line) (Liquid); method: ABBE:UFactor:4
Temperature, K	Mole fraction of benzene	Refractive index (Na D-line)	uncertainty
298.15	0	1.4119	0.0012
298.15	0.1282	1.4155	0.0012
298.15	0.2182	1.4192	0.0012
298.15	0.2926	1.4231	0.0012
298.15	0.4108	1.4307	0.0012
298.15	0.4964	1.4372	0.0012
298.15	0.5923	1.4455	0.0013
298.15	0.708	1.457	0.0013
298.15	0.7944	1.467	0.0013
298.15	0.9032	1.4821	0.0013
298.15	1	1.4979	0.0013
303.15	0	1.4102	0.0012
303.15	0.1282	1.4147	0.0012
303.15	0.2182	1.4188	0.0012
303.15	0.2926	1.4228	0.0012
303.15	0.4108	1.4301	0.0012
303.15	0.4964	1.4364	0.0012
303.15	0.5923	1.4449	0.0013
303.15	0.708	1.4566	0.0013
303.15	0.7944	1.4666	0.0013
303.15	0.9032	1.4813	0.0013
303.15	1	1.4962	0.0013
308.15	0	1.4084	0.0012
308.15	0.1282	1.4136	0.0012
308.15	0.2182	1.4179	0.0012
308.15	0.2926	1.4218	0.0012
308.15	0.4108	1.4294	0.0012
308.15	0.4964	1.4357	0.0012
308.15	0.5923	1.444	0.0013
308.15	0.708	1.4556	0.0013
308.15	0.7944	1.4655	0.0013
308.15	0.9032	1.48	0.0013
308.15	1	1.4944	0.0013
313.15	0	1.4069	0.0012
313.15	0.1282	1.4126	0.0012
313.15	0.2182	1.417	0.0012
313.15	0.2926	1.4209	0.0012
313.15	0.4108	1.4285	0.0012
313.15	0.4964	1.4348	0.0012
313.15	0.5923	1.4429	0.0013
313.15	0.708	1.4545	0.0013
313.15	0.7944	1.4643	0.0013
313.15	0.9032	1.4786	0.0013
313.15	1	1.4929	0.0013

System: benzene + butyl 2-propenoate; phases: Liquid
Fixed: Pressure, kPa = 101
Property: Speed of sound, m/s (Liquid); method: LVPAI:UFactor:2
Temperature, K	Mole fraction of benzene	Speed of sound, m/s	uncertainty
298.15	0	1207.5	3.9
298.15	0.1282	1210.5	3.9
298.15	0.2182	1213.6	3.9
298.15	0.2926	1216.2	3.9
298.15	0.4108	1224	3.9
298.15	0.4964	1230.5	3.9
298.15	0.5923	1240	4
298.15	0.708	1253.3	4
298.15	0.7944	1265.6	4
298.15	0.9032	1285	4
298.15	1	1306	4.1
303.15	0	1185.1	3.9
303.15	0.1282	1186.5	3.9
303.15	0.2182	1189	3.9
303.15	0.2926	1191.5	3.9
303.15	0.4108	1197.5	3.9
303.15	0.4964	1203.5	3.9
303.15	0.5923	1212.5	3.9
303.15	0.708	1225.7	4
303.15	0.7944	1239	4
303.15	0.9032	1258.3	4
303.15	1	1283.6	4.1
308.15	0	1159.3	3.8
308.15	0.1282	1158	3.9
308.15	0.2182	1159.9	3.9
308.15	0.2926	1162.4	3.9
308.15	0.4108	1168.3	3.9
308.15	0.4964	1174.8	3.9
308.15	0.5923	1182.8	3.9
308.15	0.708	1195.3	3.9
308.15	0.7944	1208.5	4
308.15	0.9032	1228.1	4
308.15	1	1257.2	4
313.15	0	1135.1	3.8
313.15	0.1282	1131.8	3.8
313.15	0.2182	1132.8	3.8
313.15	0.2926	1135.3	3.8
313.15	0.4108	1141.9	3.9
313.15	0.4964	1147.8	3.9
313.15	0.5923	1156.3	3.9
313.15	0.708	1169.4	3.9
313.15	0.7944	1181.2	3.9
313.15	0.9032	1200.9	4
313.15	1	1233.6	4

System: benzene + butyl 2-propenoate; phases: Liquid
Fixed: Pressure, kPa = 101
Property: Mass density, kg/m3 (Liquid); method: PYCNOM:UFactor:6
Temperature, K	Mole fraction of benzene	Mass density, kg/m3	uncertainty
298.15	0	894.1	1.7
298.15	0.1282	891.9	1.7
298.15	0.2182	890.1	1.7
298.15	0.2926	888.6	1.7
298.15	0.4108	886.4	1.7
298.15	0.4964	884.7	1.7
298.15	0.5923	882.9	1.7
298.15	0.708	880.5	1.8
298.15	0.7944	878.7	1.8
298.15	0.9032	876.3	1.8
298.15	1	873.6	1.8
303.15	0	889.2	1.8
303.15	0.1282	886.9	1.8
303.15	0.2182	885.2	1.8
303.15	0.2926	883.9	1.8
303.15	0.4108	881.8	1.8
303.15	0.4964	880.2	1.8
303.15	0.5923	878.4	1.8
303.15	0.708	876.3	1.8
303.15	0.7944	874.7	1.8
303.15	0.9032	872.6	1.9
303.15	1	870.8	1.9
308.15	0	884.4	1.8
308.15	0.1282	881.8	1.9
308.15	0.2182	880.1	1.9
308.15	0.2926	878.6	1.9
308.15	0.4108	876.5	1.9
308.15	0.4964	874.8	1.9
308.15	0.5923	872.9	1.9
308.15	0.708	870.6	1.9
308.15	0.7944	868.9	1.9
308.15	0.9032	866.9	1.9
308.15	1	865.7	1.9
313.15	0	879	1.9
313.15	0.1282	876.2	1.9
313.15	0.2182	874.5	1.9
313.15	0.2926	873.1	1.9
313.15	0.4108	870.9	2
313.15	0.4964	869.3	2
313.15	0.5923	867.4	2
313.15	0.708	865.1	2
313.15	0.7944	863.4	2
313.15	0.9032	861.6	2
313.15	1	861	2

System: benzene + methyl propenoate; phases: Liquid
Fixed: Pressure, kPa = 101
Property: Viscosity, Pa*s (Liquid); method: CAPTUB:UFactor:2
Temperature, K	Mole fraction of benzene	Viscosity, Pa*s	uncertainty
298.15	0	0.000461	8e-06
298.15	0.105	0.000472	8e-06
298.15	0.2191	0.000485	8e-06
298.15	0.3452	0.000501	8e-06
298.15	0.4069	0.000509	8e-06
298.15	0.5314	0.000526	8e-06
298.15	0.6457	0.000543	8e-06
298.15	0.714	0.000554	8e-06
298.15	0.7852	0.000565	9e-06
298.15	0.8977	0.000585	9e-06
298.15	1	0.000603	9e-06
303.15	0	0.00042	7e-06
303.15	0.105	0.000433	7e-06
303.15	0.2191	0.000447	7e-06
303.15	0.3452	0.000462	8e-06
303.15	0.4069	0.00047	8e-06
303.15	0.5314	0.000488	8e-06
303.15	0.6457	0.000505	8e-06
303.15	0.714	0.000515	8e-06
303.15	0.7852	0.000526	8e-06
303.15	0.8977	0.000545	8e-06
303.15	1	0.000562	9e-06
308.15	0	0.000384	7e-06
308.15	0.105	0.000398	7e-06
308.15	0.2191	0.000412	7e-06
308.15	0.3452	0.000428	7e-06
308.15	0.4069	0.000436	7e-06
308.15	0.5314	0.000453	7e-06
308.15	0.6457	0.00047	8e-06
308.15	0.714	0.000481	8e-06
308.15	0.7852	0.000492	8e-06
308.15	0.8977	0.00051	8e-06
308.15	1	0.000526	8e-06
313.15	0	0.000357	7e-06
313.15	0.105	0.000369	7e-06
313.15	0.2191	0.000382	7e-06
313.15	0.3452	0.000392	7e-06
313.15	0.4069	0.000403	7e-06
313.15	0.5314	0.000418	7e-06
313.15	0.6457	0.000433	7e-06
313.15	0.714	0.000442	7e-06
313.15	0.7852	0.000452	7e-06
313.15	0.8977	0.000467	8e-06
313.15	1	0.00048	8e-06

System: benzene + methyl propenoate; phases: Liquid
Fixed: Pressure, kPa = 101
Property: Refractive index (Na D-line) (Liquid); method: ABBE:UFactor:4
Temperature, K	Mole fraction of benzene	Refractive index (Na D-line)	uncertainty
298.15	0	1.4	0.0013
298.15	0.105	1.4075	0.0013
298.15	0.2191	1.4145	0.0013
298.15	0.3452	1.422	0.0013
298.15	0.4069	1.4265	0.0013
298.15	0.5314	1.437	0.0013
298.15	0.6457	1.45	0.0013
298.15	0.714	1.46	0.0013
298.15	0.7852	1.47	0.0013
298.15	0.8977	1.4855	0.0013
298.15	1	1.4979	0.0013
303.15	0	1.3979	0.0013
303.15	0.105	1.4042	0.0013
303.15	0.2191	1.411	0.0013
303.15	0.3452	1.4185	0.0013
303.15	0.4069	1.423	0.0013
303.15	0.5314	1.4345	0.0013
303.15	0.6457	1.4475	0.0013
303.15	0.714	1.4575	0.0013
303.15	0.7852	1.467	0.0013
303.15	0.8977	1.483	0.0013
303.15	1	1.4962	0.0013
308.15	0	1.3954	0.0013
308.15	0.105	1.401	0.0013
308.15	0.2191	1.407	0.0013
308.15	0.3452	1.415	0.0013
308.15	0.4069	1.42	0.0013
308.15	0.5314	1.432	0.0013
308.15	0.6457	1.445	0.0013
308.15	0.714	1.455	0.0013
308.15	0.7852	1.465	0.0013
308.15	0.8977	1.4812	0.0013
308.15	1	1.4944	0.0013
313.15	0	1.3944	0.0013
313.15	0.105	1.399	0.0013
313.15	0.2191	1.404	0.0013
313.15	0.3452	1.412	0.0013
313.15	0.4069	1.417	0.0013
313.15	0.5314	1.429	0.0013
313.15	0.6457	1.442	0.0013
313.15	0.714	1.451	0.0013
313.15	0.7852	1.4616	0.0013
313.15	0.8977	1.478	0.0013
313.15	1	1.4929	0.0013

System: benzene + methyl propenoate; phases: Liquid
Fixed: Pressure, kPa = 101
Property: Speed of sound, m/s (Liquid); method: LVPAI:UFactor:2
Temperature, K	Mole fraction of benzene	Speed of sound, m/s	uncertainty
298.15	0	1194.5	4
298.15	0.105	1198.1	4
298.15	0.2191	1204.5	4
298.15	0.3452	1212.8	4
298.15	0.4069	1217.6	4
298.15	0.5314	1229.1	4
298.15	0.6457	1241.1	4
298.15	0.714	1249.6	4
298.15	0.7852	1260.6	4
298.15	0.8977	1281.5	4
298.15	1	1306	4.1
303.15	0	1172.1	4
303.15	0.105	1178.8	4
303.15	0.2191	1185.2	4
303.15	0.3452	1194.5	4
303.15	0.4069	1199.7	4
303.15	0.5314	1210.5	4
303.15	0.6457	1222.4	4
303.15	0.714	1230.6	4
303.15	0.7852	1241.5	4
303.15	0.8977	1262.6	4
303.15	1	1283.6	4.1
308.15	0	1145.6	3.9
308.15	0.105	1153.9	3.9
308.15	0.2191	1161.4	3.9
308.15	0.3452	1171.5	4
308.15	0.4069	1176.9	4
308.15	0.5314	1187.8	4
308.15	0.6457	1199.7	4
308.15	0.714	1208.7	4
308.15	0.7852	1219.5	4
308.15	0.8977	1239.5	4
308.15	1	1257.2	4
313.15	0	1122.1	3.9
313.15	0.105	1131.9	3.9
313.15	0.2191	1140.4	3.9
313.15	0.3452	1150.6	3.9
313.15	0.4069	1156.3	3.9
313.15	0.5314	1168.1	3.9
313.15	0.6457	1180.9	4
313.15	0.714	1189.7	4
313.15	0.7852	1200.4	4
313.15	0.8977	1219.5	4
313.15	1	1233.6	4

System: benzene + methyl propenoate; phases: Liquid
Fixed: Pressure, kPa = 101
Property: Mass density, kg/m3 (Liquid); method: PYCNOM:UFactor:6
Temperature, K	Mole fraction of benzene	Mass density, kg/m3	uncertainty
298.15	0	949.2	2
298.15	0.105	940.2	2
298.15	0.2191	930.9	1.9
298.15	0.3452	921	1.9
298.15	0.4069	916.2	1.9
298.15	0.5314	906.8	1.9
298.15	0.6457	898.4	1.9
298.15	0.714	893.5	1.8
298.15	0.7852	888.5	1.8
298.15	0.8977	880.7	1.8
298.15	1	873.6	1.8
303.15	0	943.4	2.1
303.15	0.105	934.4	2
303.15	0.2191	925.3	2
303.15	0.3452	915.6	2
303.15	0.4069	911	2
303.15	0.5314	901.9	2
303.15	0.6457	893.8	1.9
303.15	0.714	889	1.9
303.15	0.7852	884.2	1.9
303.15	0.8977	877	1.9
303.15	1	870.8	1.9
308.15	0	937.7	2.1
308.15	0.105	928.6	2.1
308.15	0.2191	919.3	2.1
308.15	0.3452	909.6	2.1
308.15	0.4069	905	2.1
308.15	0.5314	896	2
308.15	0.6457	887.9	2
308.15	0.714	883.1	2
308.15	0.7852	878.3	2
308.15	0.8977	871.2	2
308.15	1	865.7	1.9
313.15	0	932	2.2
313.15	0.105	922.9	2.2
313.15	0.2191	913.6	2.2
313.15	0.3452	904	2.1
313.15	0.4069	899.5	2.1
313.15	0.5314	890.6	2.1
313.15	0.6457	882.5	2.1
313.15	0.714	877.8	2.1
313.15	0.7852	873	2.1
313.15	0.8977	865.9	2
313.15	1	861	2

System: benzene + styrene; phases: Liquid
Fixed: Pressure, kPa = 101
Property: Viscosity, Pa*s (Liquid); method: CAPTUB:UFactor:2
Temperature, K	Mole fraction of benzene	Viscosity, Pa*s	uncertainty
298.15	0	0.000695	9e-06
298.15	0.1362	0.000672	9e-06
298.15	0.2498	0.000654	9e-06
298.15	0.3047	0.000645	9e-06
298.15	0.4109	0.000633	9e-06
298.15	0.5207	0.000623	9e-06
298.15	0.5834	0.000618	9e-06
298.15	0.7114	0.000608	9e-06
298.15	0.7924	0.000605	9e-06
298.15	0.8831	0.000604	9e-06
298.15	1	0.000603	9e-06
303.15	0	0.000654	9e-06
303.15	0.1362	0.000629	9e-06
303.15	0.2498	0.00061	9e-06
303.15	0.3047	0.0006	9e-06
303.15	0.4109	0.000589	9e-06
303.15	0.5207	0.000577	8e-06
303.15	0.5834	0.00057	8e-06
303.15	0.7114	0.00056	8e-06
303.15	0.7924	0.000556	8e-06
303.15	0.8831	0.000555	8e-06
303.15	1	0.000562	9e-06
308.15	0	0.000618	9e-06
308.15	0.1362	0.00059	8e-06
308.15	0.2498	0.00057	8e-06
308.15	0.3047	0.00056	8e-06
308.15	0.4109	0.000548	8e-06
308.15	0.5207	0.000537	8e-06
308.15	0.5834	0.00053	8e-06
308.15	0.7114	0.00052	8e-06
308.15	0.7924	0.000515	8e-06
308.15	0.8831	0.000514	8e-06
308.15	1	0.000526	8e-06
313.15	0	0.000573	8e-06
313.15	0.1362	0.00054	8e-06
313.15	0.2498	0.000518	8e-06
313.15	0.3047	0.00051	8e-06
313.15	0.4109	0.000499	8e-06
313.15	0.5207	0.000487	8e-06
313.15	0.5834	0.00048	8e-06
313.15	0.7114	0.00047	8e-06
313.15	0.7924	0.000466	8e-06
313.15	0.8831	0.000465	8e-06
313.15	1	0.00048	8e-06

System: benzene + styrene; phases: Liquid
Fixed: Pressure, kPa = 101
Property: Refractive index (Na D-line) (Liquid); method: ABBE:UFactor:4
Temperature, K	Mole fraction of benzene	Refractive index (Na D-line)	uncertainty
298.15	0	1.5456	0.0012
298.15	0.1362	1.5375	0.0012
298.15	0.2498	1.5309	0.0012
298.15	0.3047	1.5275	0.0012
298.15	0.4109	1.5225	0.0012
298.15	0.5207	1.5171	0.0013
298.15	0.5834	1.5144	0.0013
298.15	0.7114	1.5085	0.0013
298.15	0.7924	1.5052	0.0013
298.15	0.8831	1.5025	0.0013
298.15	1	1.4979	0.0013
303.15	0	1.5445	0.0012
303.15	0.1362	1.5353	0.0012
303.15	0.2498	1.5291	0.0012
303.15	0.3047	1.5257	0.0012
303.15	0.4109	1.5205	0.0012
303.15	0.5207	1.5151	0.0012
303.15	0.5834	1.5122	0.0013
303.15	0.7114	1.5063	0.0013
303.15	0.7924	1.503	0.0013
303.15	0.8831	1.4997	0.0013
303.15	1	1.4962	0.0013
308.15	0	1.5437	0.0012
308.15	0.1362	1.5339	0.0012
308.15	0.2498	1.5274	0.0012
308.15	0.3047	1.5241	0.0012
308.15	0.4109	1.5188	0.0012
308.15	0.5207	1.5132	0.0012
308.15	0.5834	1.5103	0.0013
308.15	0.7114	1.5043	0.0013
308.15	0.7924	1.5005	0.0013
308.15	0.8831	1.497	0.0013
308.15	1	1.4944	0.0013
313.15	0	1.5429	0.0012
313.15	0.1362	1.5322	0.0012
313.15	0.2498	1.5256	0.0012
313.15	0.3047	1.5225	0.0012
313.15	0.4109	1.5172	0.0012
313.15	0.5207	1.5115	0.0012
313.15	0.5834	1.5085	0.0013
313.15	0.7114	1.5023	0.0013
313.15	0.7924	1.4984	0.0013
313.15	0.8831	1.4945	0.0013
313.15	1	1.4929	0.0013

System: benzene + styrene; phases: Liquid
Fixed: Pressure, kPa = 101
Property: Speed of sound, m/s (Liquid); method: LVPAI:UFactor:2
Temperature, K	Mole fraction of benzene	Speed of sound, m/s	uncertainty
298.15	0	1383	4
298.15	0.1362	1371	4
298.15	0.2498	1359.5	4
298.15	0.3047	1353.9	4
298.15	0.4109	1344.7	4
298.15	0.5207	1335.9	4
298.15	0.5834	1332	4
298.15	0.7114	1323.8	4.1
298.15	0.7924	1318.6	4.1
298.15	0.8831	1313.1	4.1
298.15	1	1306	4.1
303.15	0	1360	4
303.15	0.1362	1346.9	4
303.15	0.2498	1335.9	4
303.15	0.3047	1330.5	4
303.15	0.4109	1321.7	4
303.15	0.5207	1312.6	4
303.15	0.5834	1308.6	4
303.15	0.7114	1300.5	4
303.15	0.7924	1295.3	4
303.15	0.8831	1290	4
303.15	1	1283.6	4.1
308.15	0	1334	4
308.15	0.1362	1319.6	4
308.15	0.2498	1309	4
308.15	0.3047	1304	4
308.15	0.4109	1295.3	4
308.15	0.5207	1286.2	4
308.15	0.5834	1282.1	4
308.15	0.7114	1274	4
308.15	0.7924	1268.7	4
308.15	0.8831	1262.5	4
308.15	1	1257.2	4
313.15	0	1310	4
313.15	0.1362	1295.2	4
313.15	0.2498	1284.5	4
313.15	0.3047	1280	4
313.15	0.4109	1271.6	4
313.15	0.5207	1262.8	4
313.15	0.5834	1258.3	4
313.15	0.7114	1249.8	4
313.15	0.7924	1244.5	4
313.15	0.8831	1238.5	4
313.15	1	1233.6	4

System: benzene + styrene; phases: Liquid
Fixed: Pressure, kPa = 101
Property: Mass density, kg/m3 (Liquid); method: PYCNOM:UFactor:6
Temperature, K	Mole fraction of benzene	Mass density, kg/m3	uncertainty
298.15	0	901.8	1.7
298.15	0.1362	898.3	1.7
298.15	0.2498	895.1	1.7
298.15	0.3047	893.5	1.7
298.15	0.4109	890.5	1.7
298.15	0.5207	887.4	1.7
298.15	0.5834	885.7	1.7
298.15	0.7114	882.1	1.8
298.15	0.7924	880	1.8
298.15	0.8831	877.4	1.8
298.15	1	873.6	1.8
303.15	0	897.1	1.8
303.15	0.1362	893.6	1.8
303.15	0.2498	890.6	1.8
303.15	0.3047	889.1	1.8
303.15	0.4109	886.3	1.8
303.15	0.5207	883.4	1.8
303.15	0.5834	881.8	1.8
303.15	0.7114	878.5	1.8
303.15	0.7924	876.5	1.8
303.15	0.8831	874.1	1.9
303.15	1	870.8	1.9
308.15	0	892	1.9
308.15	0.1362	888.3	1.9
308.15	0.2498	885.3	1.9
308.15	0.3047	883.8	1.9
308.15	0.4109	881	1.9
308.15	0.5207	878.1	1.9
308.15	0.5834	876.5	1.9
308.15	0.7114	873.1	1.9
308.15	0.7924	871	1.9
308.15	0.8831	868.8	1.9
308.15	1	865.7	1.9
313.15	0	887.3	1.9
313.15	0.1362	883.4	1.9
313.15	0.2498	880.4	2
313.15	0.3047	879	2
313.15	0.4109	876.2	2
313.15	0.5207	873.3	2
313.15	0.5834	871.7	2
313.15	0.7114	868.3	2
313.15	0.7924	866.1	2
313.15	0.8831	863.9	2
313.15	1	861	2
