Measured thermophysical data. Compressed Liquid Density and Helmholtz Equation of State of Fluoroethane (R161)
Source: Int. J. Thermophys., 2016, 10.1007/s10765-016-2061-1
Compound 1: fluoroethane, C2H5F, InChI=1S/C2H5F/c1-2-3/h2H2,1H3, purity 99.74%

System: fluoroethane; phases: Liquid
Property: Mass density, kg/m3 (Liquid); method: Vibrating tube method
Temperature, K	Pressure, kPa	Mass density, kg/m3	uncertainty
283.52	1000	727.11	0.69
293.2	1010	706.97	0.72
283.52	3000	731.96	0.69
332.98	3000	616.38	1.11
342.85	3000	582.54	1.28
313.14	3000	669.48	0.82
323	3000	644.53	0.92
293.2	3010	712.87	0.72
303.23	3010	692.69	0.78
283.52	4990	736.6	0.68
362.79	4990	521.7	1.58
332.98	5000	628.96	0.91
342.85	5000	600.31	1.06
313.14	5000	677.22	0.77
323	5000	654.18	0.82
352.86	5000	566.12	1.27
293.21	5010	718.27	0.7
303.23	5010	699.12	0.73
303.23	10000	713.26	0.72
283.51	10000	747.35	0.69
342.85	10000	630.51	0.93
313.14	10000	694	0.75
323	10000	673.87	0.79
352.86	10000	606.19	1.06
362.79	10000	579.49	1.3
293.21	10010	730.51	0.7
332.98	10010	653.01	0.85
303.23	15000	725.31	0.72
332.99	15000	671.15	0.8
283.51	15000	756.91	0.69
342.85	15000	651.87	0.84
313.14	15000	707.5	0.74
323	15000	689.57	0.77
352.86	15000	631.59	0.89
362.8	15000	610.29	0.97
293.21	15010	741.15	0.7
352.86	19990	650.88	0.85
362.8	19990	632.41	0.89
293.21	20000	750.65	0.71
342.85	20000	668.76	0.81
283.51	20000	765.51	0.7
313.15	20000	719.54	0.74
323	20000	702.96	0.76
332.99	20010	686.12	0.78
303.23	20010	735.85	0.72
362.8	24990	650.04	0.86
332.99	25000	698.88	0.79
342.85	25000	682.96	0.81
313.15	25000	729.96	0.75
283.51	25000	773.62	0.7
352.86	25000	666.7	0.83
323	25000	714.54	0.77
303.24	25010	745.33	0.73
293.21	25010	759.29	0.72
332.99	29990	710.09	0.79
352.86	29990	680.18	0.83
323.01	30000	724.71	0.77
342.85	30000	695.28	0.81
303.23	30000	753.95	0.74
283.51	30000	780.86	0.71
362.8	30000	664.91	0.85
313.15	30010	739.29	0.75
293.21	30010	767.25	0.73
332.99	39990	729.27	0.82
352.86	39990	702.62	0.86
313.15	40000	755.43	0.79
323.01	40000	742.42	0.8
342.85	40000	716.03	0.84
283.51	40000	794.13	0.74
362.8	40000	689.17	0.88
303.24	40010	769.21	0.77
293.22	40010	781.39	0.75
283.5	49990	805.67	0.76
362.8	49990	708.84	0.92
313.15	50000	770.06	0.81
303.24	50000	782.6	0.8
352.86	50000	721.07	0.89
293.22	50000	793.87	0.78
332.98	50000	745.52	0.85
323.01	50000	757.67	0.83
342.86	50010	733.53	0.87
352.86	59990	736.86	0.93
362.81	59990	725.55	0.95
313.15	60000	782.28	0.95
293.22	60000	805.15	0.9
342.85	60000	748.38	1.05
323.01	60000	770.9	0.98
283.5	60000	816.48	0.87
332.98	60000	759.62	1.01
303.24	60000	794.39	0.92
323.01	69990	783.33	0.99
332.99	69990	772.51	1.02
283.5	69990	826.06	0.87
342.86	70000	762.03	1.05
303.24	70000	805.57	0.93
352.86	70000	751.19	1.08
293.21	70000	815.59	0.9
313.15	70000	794.18	0.96
362.81	70000	740.64	1.11
283.5	79970	834.87	0.89
352.86	79990	763.56	1.09
342.86	79990	773.74	1.06
293.21	80000	825	0.91
303.24	80000	815.36	0.94
323.01	80000	794.16	1
313.15	80000	804.63	0.97
362.81	80000	753.56	1.12
332.99	80010	783.85	1.03
313.16	90000	814.08	0.98
352.86	90000	774.75	1.11
293.22	90000	833.51	0.92
303.25	90000	824.43	0.95
332.99	90000	794.07	1.04
323	90000	804.1	1.01
362.81	90000	765.31	1.14
342.86	90010	784.53	1.07
283.5	90040	843.3	0.9
352.87	99990	785.11	1.13
293.22	99990	841.66	0.94
362.81	99990	775.91	1.16
323.01	100000	813.21	1.03
313.16	100000	822.46	1
332.99	100000	803.45	1.07
283.51	100000	851.08	0.91
303.25	100000	832.9	0.96
342.87	100000	794.42	1.1
