Measured thermophysical data. CO2 Solubility in Physicochemical Absorbent: Dibutyl Ether/N-Methylethanolamine/Ethanol
Source: Int. J. Thermophys., 2019, 10.1007/s10765-019-2506-4
Compound 1: dibutyl ether, C8H18O, InChI=1S/C8H18O/c1-3-5-7-9-8-6-4-2/h3-8H2,1-2H3, purity 99%
Compound 2: 2-(methylamino)ethanol, C3H9NO, InChI=1S/C3H9NO/c1-4-2-3-5/h4-5H,2-3H2,1H3, purity 99%
Compound 3: ethanol, C2H6O, InChI=1S/C2H6O/c1-2-3/h3H,2H2,1H3, purity 99%
Compound 4: carbon dioxide, CO2, InChI=1S/CO2/c2-1-3

System: ethanol + carbon dioxide; phases: Gas, Liquid
Fixed: Temperature, K = 313.15
Property: Partial pressure, kPa of carbon dioxide (Gas); method: Phase Equilibrium
Molality, mol/kg of carbon dioxide	Partial pressure, kPa of carbon dioxide	uncertainty
0.0607	1105	17
0.1001	1840	29
0.1293	2365	37
0.1594	2862	44
0.169	3044	47

System: dibutyl ether + carbon dioxide; phases: Gas, Liquid
Property: Partial pressure, kPa of carbon dioxide (Gas); method: Phase Equilibrium
Temperature, K	Molality, mol/kg of carbon dioxide	Partial pressure, kPa of carbon dioxide	uncertainty
298.15	0.46	360	20
298.15	0.8	595	21
298.15	1.24	900	22
298.15	1.71	1168	24
298.15	2.28	1484	27
298.15	3.23	1959	33
298.15	4.01	2310	38
308.15	0.49	494	24
308.15	1.02	908	25
308.15	1.8	1450	29
308.15	2.61	1944	34
308.15	3.48	2410	40
318.15	0.46	525	26
318.15	0.95	964	28
318.15	1.67	1543	32
318.15	2.41	2075	37
318.15	3.21	2581	44
323.15	0.43	553	30
323.15	0.88	1020	31
323.15	1.58	1630	35
323.15	2.25	2201	41
323.15	2.99	2745	47

System: 2-(methylamino)ethanol + carbon dioxide; phases: Gas, Liquid
Property: Partial pressure, kPa of carbon dioxide (Gas); method: Phase Equilibrium
Temperature, K	Molality, mol/kg of carbon dioxide	Partial pressure, kPa of carbon dioxide	uncertainty
298.15	2.24	411	21
298.15	3.03	963	24
298.15	3.84	1515	29
298.15	4.74	2002	34
298.15	5.7	2500	41
308.15	2.43	619	21
308.15	3.13	1176	29
308.15	3.66	1642	33
308.15	4.3	2025	36
308.15	5.03	2490	43
318.15	2.16	528	27
318.15	2.83	1133	31
318.15	3.39	1628	35
318.15	3.99	2097	39
318.15	4.57	2502	43
323.15	2.03	599	30
323.15	2.52	1103	34
323.15	2.99	1604	37
323.15	3.53	2075	41
323.15	4.02	2515	47
