Measured thermophysical data. Binary Diffusion Coefficients for Gas Mixtures of Propane with Methane and Carbon Dioxide Measured in a Loschmidt Cell Combined with Holographic Interferometry
Source: Int. J. Thermophys., 2019, 10.1007/s10765-019-2484-6
Compound 1: propane, C3H8, InChI=1S/C3H8/c1-3-2/h3H2,1-2H3
Compound 2: methane, CH4, InChI=1S/CH4/h1H4
Compound 3: carbon dioxide, CO2, InChI=1S/CO2/c2-1-3

System: propane + methane; phases: Gas
Property: Binary diffusion coefficient, m2/s (Gas); method: Loschmidt cell combined with holographic interferometry
Mole fraction of propane	Temperature, K	Pressure, kPa	Binary diffusion coefficient, m2/s	uncertainty
0.5	293.19	50	2.36e-06	120
0.159	293.32	100	1.242e-05	620
0.159	313.58	100	1.519e-05	760
0.3335	293.32	100	1.179e-05	590
0.3295	313.56	100	1.396e-05	700
0.4973	293.31	100	1.214e-05	7280
0.4995	313.56	100	1.314e-05	660
0.5	293.29	100	1.17671e-05	7314.6
0.5	313.59	100	1.3836e-05	692
0.6665	293.31	100	1.1769e-05	588
0.6665	313.6	100	1.3951e-05	698
0.833	293.33	100	1.1788e-05	589
0.8295	313.55	100	1.371e-05	690
0.159	293.33	200	6.162e-06	309
0.159	313.6	200	7.387e-06	371
0.3335	293.33	200	5.704e-06	285
0.3295	313.59	200	6.977e-06	349
0.498	293.34	200	5.81e-06	291
0.4995	313.57	200	6.73e-06	340
0.5	293.21	200	5.78e-06	289
0.5	313.58	200	6.9148e-06	345.7
0.6665	293.31	200	5.808e-06	290
0.6665	313.57	200	6.922e-06	346
0.833	293.33	200	5.767e-06	289
0.8295	313.61	200	6.7623e-06	339.1
0.159	293.18	500	2.357e-06	118
0.1665	313.54	500	2.803e-06	140
0.3331	293.12	500	2.191e-06	110
0.332	313.55	500	2.785e-06	139.3
0.492	293.12	500	2.067e-06	129
0.4995	313.28	500	2.708e-06	135
0.5	293.16	500	2.193e-06	135
0.5	313.55	500	2.719e-06	136
0.659	293.09	500	2.1245e-06	106.3
0.6665	313.59	500	2.761e-06	138
0.833	293.13	500	1.97e-06	100
0.832	313.52	500	2.7341e-06	136.7

System: propane + carbon dioxide; phases: Gas
Property: Binary diffusion coefficient, m2/s (Gas); method: Loschmidt cell combined with holographic interferometry
Mole fraction of propane	Temperature, K	Pressure, kPa	Binary diffusion coefficient, m2/s	uncertainty
0.5	293.24	50	1.89e-05	900
0.1665	293.25	100	8.54e-06	430
0.1665	313.28	100	9.794e-06	490
0.333	293.27	100	8.314e-06	416
0.333	313.26	100	9.712e-06	486
0.4995	293.32	100	8.235e-06	413
0.4995	313.32	100	9.709e-06	485
0.5	293.47	100	8.232e-06	413
0.6665	293.36	100	8.247e-06	412
0.6665	313.23	100	9.672e-06	484
0.833	293.27	100	8.288e-06	414
0.833	313.25	100	9.529e-06	476
0.1665	293.25	200	4.138e-06	208
0.1665	313.28	200	4.7977e-06	240.5
0.333	293.28	200	4.119e-06	206
0.333	313.21	200	4.8804e-06	244
0.4995	293.31	200	4.123e-06	206
0.4995	313.29	200	4.8e-06	240
0.5	293.37	200	4.058e-06	203
0.5	313.22	200	4.771e-06	240
0.6665	293.33	200	4.06e-06	203
0.6665	313.26	200	4.789e-06	239
0.833	293.28	200	4.058e-06	204
0.833	313.23	200	4.772e-06	239
0.1665	293.27	500	1.59e-06	80
0.1665	313.31	500	1.953e-06	98
0.333	293.3	500	1.71e-06	90
0.333	313.27	500	1.943e-06	97
0.4995	293.33	500	1.49e-06	75
0.5	293.39	500	1.5445e-06	77.3
0.5	313.21	500	1.77e-06	90
0.6665	293.41	500	1.5231e-06	76.2
0.6665	313.27	500	1.8529e-06	92.7
0.833	293.32	500	1.507e-06	75
0.833	313.27	500	1.864e-06	93
