Measured thermophysical data. Physicochemical Properties of L-Alanine in Aqueous Silver Sulphate Solutions at (298.15, 308.15, and 318.15) K
Source: Int. J. Thermophys., 2011, 10.1007/s10765-011-1060-5
Compound 1: (S)-2-aminopropanoic acid, C3H7NO2, InChI=1S/C3H7NO2/c1-2(4)3(5)6/h2H,4H2,1H3,(H,5,6)/t2-/m0/s1
Compound 2: water, H2O, InChI=1S/H2O/h1H2, purity 99.9%
Compound 3: silver(I) sulfate, Ag2O4S, InChI=1S/2Ag.H2O4S/c;;1-5(2,3)4/h;;(H2,1,2,3,4)/q2*+1;/p-2

System: (S)-2-aminopropanoic acid + water + silver(I) sulfate; phases: Liquid
Fixed: Pressure, kPa = 101
Property: Viscosity, Pa*s (Liquid); method: CAPTUB:UFactor:16
Solvent: Amount concentration (molarity), mol/dm3 of silver(I) sulfate	Temperature, K	Amount concentration (molarity), mol/dm3 of (S)-2-aminopropanoic acid	Viscosity, Pa*s	uncertainty
0.005	298.15	0.024	0.000761	7.8e-05
0.005	298.15	0.032	0.000764	7.9e-05
0.005	298.15	0.056	0.000781	8e-05
0.005	298.15	0.072	0.00079	8.1e-05
0.005	298.15	0.088	0.000802	8.2e-05
0.005	298.15	0.1	0.000808	8.2e-05
0.005	308.15	0.0239	0.000664	7e-05
0.005	308.15	0.0319	0.000679	7.1e-05
0.005	308.15	0.0558	0.000709	7.4e-05
0.005	308.15	0.0718	0.000726	7.5e-05
0.005	308.15	0.0877	0.000736	7.6e-05
0.005	308.15	0.0997	0.000749	7.7e-05
0.005	318.15	0.0238	0.000619	6.6e-05
0.005	318.15	0.0318	0.000639	6.8e-05
0.005	318.15	0.0556	0.000689	7.2e-05
0.005	318.15	0.0715	0.000718	7.5e-05
0.005	318.15	0.0873	0.000743	7.7e-05
0.005	318.15	0.0993	0.000761	7.8e-05
0.01	298.15	0.024	0.000827	8.4e-05
0.01	298.15	0.032	0.00083	8.4e-05
0.01	298.15	0.056	0.000847	8.6e-05
0.01	298.15	0.072	0.00086	8.7e-05
0.01	298.15	0.088	0.000871	8.8e-05
0.01	298.15	0.1	0.000879	8.8e-05
0.01	308.15	0.0239	0.000775	7.9e-05
0.01	308.15	0.0319	0.000784	8e-05
0.01	308.15	0.0558	0.000818	8.3e-05
0.01	308.15	0.0718	0.000836	8.5e-05
0.01	308.15	0.0877	0.00085	8.6e-05
0.01	308.15	0.0996	0.000863	8.7e-05
0.01	318.15	0.0238	0.000622	6.6e-05
0.01	318.15	0.0317	0.000635	6.7e-05
0.01	318.15	0.0556	0.000664	7e-05
0.01	318.15	0.0715	0.000681	7.1e-05
0.01	318.15	0.0873	0.000694	7.3e-05
0.01	318.15	0.0993	0.000706	7.4e-05
0.015	298.15	0.024	0.000853	8.6e-05
0.015	298.15	0.032	0.000856	8.6e-05
0.015	298.15	0.056	0.000874	8.8e-05
0.015	298.15	0.072	0.000889	8.9e-05
0.015	298.15	0.088	0.000903	9e-05
0.015	298.15	0.1	0.000911	9.1e-05
0.015	308.15	0.0239	0.000757	7.8e-05
0.015	308.15	0.0319	0.00077	7.9e-05
0.015	308.15	0.0558	0.000799	8.2e-05
0.015	308.15	0.0718	0.000814	8.3e-05
0.015	308.15	0.0877	0.000826	8.4e-05
0.015	308.15	0.0996	0.000839	8.5e-05
0.015	318.15	0.0238	0.000619	6.6e-05
0.015	318.15	0.0318	0.000631	6.7e-05
0.015	318.15	0.0556	0.000651	6.9e-05
0.015	318.15	0.0715	0.000666	7e-05
0.015	318.15	0.0874	0.000681	7.1e-05
0.015	318.15	0.0993	0.00069	7.2e-05
0.02	298.15	0.0241	0.000828	8.4e-05
0.02	298.15	0.032	0.000834	8.5e-05
0.02	298.15	0.0561	0.000851	8.6e-05
0.02	298.15	0.0721	0.000865	8.7e-05
0.02	298.15	0.0881	0.000879	8.8e-05
0.02	298.15	0.1001	0.000886	8.9e-05
0.02	308.15	0.024	0.000731	7.6e-05
0.02	308.15	0.0319	0.000741	7.7e-05
0.02	308.15	0.0559	0.000766	7.9e-05
0.02	308.15	0.0719	0.000783	8e-05
0.02	308.15	0.0878	0.000799	8.2e-05
0.02	308.15	0.0998	0.000809	8.2e-05
0.02	318.15	0.024	0.000646	6.8e-05
0.02	318.15	0.0318	0.000655	6.9e-05
0.02	318.15	0.0557	0.000678	7.1e-05
0.02	318.15	0.0716	0.000692	7.2e-05
0.02	318.15	0.0875	0.000707	7.4e-05
0.02	318.15	0.0994	0.000716	7.4e-05

System: (S)-2-aminopropanoic acid + water + silver(I) sulfate; phases: Liquid
Fixed: Pressure, kPa = 101
Property: Mass density, kg/m3 (Liquid); method: PYCNOM:UFactor:4
Solvent: Amount concentration (molarity), mol/dm3 of silver(I) sulfate	Temperature, K	Amount concentration (molarity), mol/dm3 of (S)-2-aminopropanoic acid	Mass density, kg/m3	uncertainty
0.005	298.15	0.024	999.7	1.2
0.005	298.15	0.032	999.9	1.2
0.005	298.15	0.056	1000.5	1.2
0.005	298.15	0.072	1000.9	1.3
0.005	298.15	0.088	1001.3	1.3
0.005	298.15	0.1	1001.6	1.3
0.005	308.15	0.0239	996.4	1.3
0.005	308.15	0.0319	996.7	1.3
0.005	308.15	0.0558	997.5	1.3
0.005	308.15	0.0718	998	1
0.005	308.15	0.0877	998.5	1.3
0.005	308.15	0.0997	998.8	1.3
0.005	318.15	0.0238	991.7	1.4
0.005	318.15	0.0318	992	1.4
0.005	318.15	0.0556	992.9	1.4
0.005	318.15	0.0715	993.4	1.4
0.005	318.15	0.0873	994	1.4
0.005	318.15	0.0993	994.3	1.4
0.01	298.15	0.024	1001.1	1.3
0.01	298.15	0.032	1001.4	1.3
0.01	298.15	0.056	1002	1.3
0.01	298.15	0.072	1002.4	1.3
0.01	298.15	0.088	1002.8	1.3
0.01	298.15	0.1	1003.1	1.3
0.01	308.15	0.024	998	1
0.01	308.15	0.032	998.2	1.3
0.01	308.15	0.056	998.8	1.3
0.01	308.15	0.072	999.2	1.3
0.01	308.15	0.088	999.6	1.3
0.01	308.15	0.1	999.9	1.3
0.01	318.15	0.0238	993.8	1.4
0.01	318.15	0.0317	994.1	1.4
0.01	318.15	0.0556	994.8	1.4
0.01	318.15	0.0715	995.3	1.4
0.01	318.15	0.0873	995.7	1.4
0.01	318.15	0.0993	996.1	1.4
0.015	298.15	0.024	1002.7	1.3
0.015	298.15	0.032	1002.9	1.3
0.015	298.15	0.056	1003.5	1.3
0.015	298.15	0.072	1003.9	1.3
0.015	298.15	0.088	1004.2	1.3
0.015	298.15	0.1	1004.5	1.3
0.015	308.15	0.0239	999.4	1.3
0.015	308.15	0.0319	999.6	1.3
0.015	308.15	0.0558	1000.2	1.3
0.015	308.15	0.0718	1000.6	1.3
0.015	308.15	0.0877	1001	1
0.015	308.15	0.0996	1001.3	1.3
0.015	318.15	0.0238	994.9	1.4
0.015	318.15	0.0318	995.2	1.4
0.015	318.15	0.0556	996.1	1.4
0.015	318.15	0.0715	996.6	1.4
0.015	318.15	0.0874	997.2	1.4
0.015	318.15	0.0993	997.6	1.4
0.02	298.15	0.0241	1004.1	1.3
0.02	298.15	0.032	1004.3	1.3
0.02	298.15	0.0561	1004.9	1.3
0.02	298.15	0.0721	1005.2	1.3
0.02	298.15	0.0881	1005.6	1.3
0.02	298.15	0.1001	1005.9	1.3
0.02	308.15	0.024	1000.6	1.3
0.02	308.15	0.0319	1000.9	1.3
0.02	308.15	0.0559	1001.5	1.3
0.02	308.15	0.0719	1001.9	1.3
0.02	308.15	0.0878	1002.3	1.3
0.02	308.15	0.0998	1002.6	1.3
0.02	318.15	0.024	997.2	1.4
0.02	318.15	0.0318	997.4	1.4
0.02	318.15	0.0557	998	1.4
0.02	318.15	0.0716	998.4	1.4
0.02	318.15	0.0875	998.8	1.4
0.02	318.15	0.0994	999.1	1.4
