Measured thermophysical data. Distillation Separation of Hydrofluoric Acid and Nitric Acid  From Acid Waste using the Salt Effect on   Vapor-Liquid Equilibrium
Source: Int. J. Thermophys., 2011, 10.1007/s10765-010-0904-8
Compound 1: nitric acid, HNO3, InChI=1S/HNO3/c2-1(3)4/h(H,2,3,4)
Compound 2: hydrogen fluoride, FH, InChI=1S/FH/h1H
Compound 3: water, H2O, InChI=1S/H2O/h1H2
Compound 4: potassium nitrate, KNO3, InChI=1S/K.NO3/c;2-1(3)4/q+1;-1
Compound 5: cesium nitrate, CsNO3, InChI=1S/Cs.NO3/c;2-1(3)4/q+1;-1
Compound 6: potassium fluoride, FK, InChI=1S/FH.K/h1H;/q;+1/p-1

System: nitric acid + water; phases: Gas, Liquid
Fixed: Pressure, kPa = 101.3
Property: Mole fraction of nitric acid (Gas); method: Titration method
Mole fraction of nitric acid	Mole fraction of nitric acid	uncertainty
0.109	0.008	0.008
0.16	0.025	0.017
0.22	0.074	0.022
0.258	0.137	0.029
0.304	0.22	0.03

System: nitric acid + water; phases: Liquid, Gas
Fixed: Pressure, kPa = 101.3
Property: Boiling temperature at pressure P, K (Liquid); method: Ebulliometric method (Recirculating still)
Mole fraction of nitric acid	Boiling temperature at pressure P, K	uncertainty
0.109	380.6	1.5
0.16	385.2	1.3
0.22	388.5	1.1
0.258	390.8	1
0.304	392.6	0.9

System: nitric acid + water + cesium nitrate; phases: Liquid, Gas
Fixed: Pressure, kPa = 101.3
Property: Boiling temperature at pressure P, K (Liquid); method: Ebulliometric method (Recirculating still)
Mole fraction of nitric acid	Mass fraction of cesium nitrate	Boiling temperature at pressure P, K	uncertainty
0.108	0.2	381.6	1.1
0.228	0.2	388.7	1.1
0.308	0.2	393.2	1.1
0.352	0.2	395.2	1.1
0.109	0.4	381.3	1.2
0.229	0.4	389.5	1
0.338	0.4	393.1	1
0.392	0.4	397.3	1.3

System: nitric acid + water + cesium nitrate; phases: Gas, Liquid
Fixed: Pressure, kPa = 101.3
Property: Mole fraction of nitric acid (Gas); method: Titration method
Mole fraction of nitric acid	Mass fraction of cesium nitrate	Mole fraction of nitric acid	uncertainty
0.108	0.2	0.008	0.008
0.228	0.2	0.064	0.019
0.308	0.2	0.183	0.021
0.352	0.2	0.289	0.021
0.109	0.4	0.008	0.008
0.229	0.4	0.047	0.017
0.338	0.4	0.139	0.024
0.392	0.4	0.285	0.042

System: nitric acid + water + potassium nitrate; phases: Liquid, Gas
Fixed: Pressure, kPa = 101.3
Property: Boiling temperature at pressure P, K (Liquid); method: Ebulliometric method (Recirculating still)
Mole fraction of nitric acid	Mass fraction of potassium nitrate	Boiling temperature at pressure P, K	uncertainty
0.057	0.3	379.6	1.2
0.112	0.3	383.3	1.2
0.165	0.3	386.6	1.2
0.219	0.3	390	1.2
0.054	0.4	381.5	1
0.11	0.4	384.1	1

System: nitric acid + water + potassium nitrate; phases: Gas, Liquid
Fixed: Pressure, kPa = 101.3
Property: Mole fraction of nitric acid (Gas); method: Titration method
Mole fraction of nitric acid	Mass fraction of potassium nitrate	Mole fraction of nitric acid	uncertainty
0.057	0.3	0.004	0.004
0.112	0.3	0.015	0.015
0.165	0.3	0.037	0.016
0.219	0.3	0.075	0.016
0.054	0.4	0.008	0.008
0.11	0.4	0.016	0.015

System: hydrogen fluoride + water; phases: Gas, Liquid
Fixed: Pressure, kPa = 101.3
Property: Mole fraction of hydrogen fluoride (Gas); method: Titration method
Mole fraction of hydrogen fluoride	Mole fraction of hydrogen fluoride	uncertainty
0.113	0.018	0.018
0.214	0.089	0.021
0.302	0.214	0.031
0.369	0.391	0.044
0.402	0.509	0.054

System: hydrogen fluoride + water; phases: Liquid, Gas
Fixed: Pressure, kPa = 101.3
Property: Boiling temperature at pressure P, K (Liquid); method: Ebulliometric method (Recirculating still)
Mole fraction of hydrogen fluoride	Boiling temperature at pressure P, K	uncertainty
0.113	374.3	0.7
0.214	375.6	0.7
0.302	376.4	0.8
0.369	380.4	0.9
0.402	379.2	0.9

System: hydrogen fluoride + water + potassium fluoride; phases: Liquid, Gas
Fixed: Mass fraction of potassium fluoride = 0.2
Fixed: Pressure, kPa = 101.3
Property: Boiling temperature at pressure P, K (Liquid); method: Ebulliometric method (Recirculating still)
Mole fraction of hydrogen fluoride	Boiling temperature at pressure P, K	uncertainty
0.123	374.4	0.7
0.232	374.5	0.7
0.332	374.2	0.7
0.418	376.6	0.9
0.486	380.3	1.1

System: hydrogen fluoride + water + potassium fluoride; phases: Gas, Liquid
Fixed: Pressure, kPa = 101.3
Fixed: Mass fraction of potassium fluoride = 0.2
Property: Mole fraction of hydrogen fluoride (Gas); method: Titration method
Mole fraction of hydrogen fluoride	Mole fraction of hydrogen fluoride	uncertainty
0.123	0.004	0.004
0.232	0.02	0.015
0.332	0.069	0.019
0.418	0.172	0.03
0.486	0.36	0.042

System: hydrogen fluoride + water + cesium nitrate; phases: Liquid, Gas
Fixed: Mass fraction of cesium nitrate = 0.4
Fixed: Pressure, kPa = 101.3
Property: Boiling temperature at pressure P, K (Liquid); method: Ebulliometric method (Recirculating still)
Mole fraction of hydrogen fluoride	Boiling temperature at pressure P, K	uncertainty
0.089	384.4	0.8
0.182	386.2	0.8
0.225	388.4	1

System: hydrogen fluoride + water + cesium nitrate; phases: Gas, Liquid
Fixed: Pressure, kPa = 101.3
Fixed: Mass fraction of cesium nitrate = 0.4
Property: Mole fraction of hydrogen fluoride (Gas); method: Titration method
Mole fraction of hydrogen fluoride	Mole fraction of hydrogen fluoride	uncertainty
0.089	0.017	0.017
0.182	0.124	0.027
0.225	0.248	0.044
