Measured thermophysical data. Experimental Study of the Density and Viscosity of n-Heptane at Temperatures from 298 K to 470 K and Pressure up to 245 MPa
Source: Int. J. Thermophys., 2013, 10.1007/s10765-012-1373-z
Compound 1: heptane, C7H16, InChI=1S/C7H16/c1-3-5-7-6-4-2/h3-7H2,1-2H3, purity 99.997%

System: heptane; phases: Liquid
Property: Viscosity, Pa*s (Liquid); method: Falling or rolling sphere viscometry
Temperature, K	Pressure, kPa	Viscosity, Pa*s	uncertainty
298.15	98	0.000396	1.61e-05
298.15	24510	0.0004923	2e-05
298.15	49030	0.000602	2.45e-05
298.15	98060	0.0008489	3.45e-05
298.15	147100	0.0011368	4.62e-05
298.15	196130	0.0014932	6.07e-05
298.15	245160	0.0019099	7.76e-05
303.15	98	0.000373	1.52e-05
303.15	24510	0.0004737	1.93e-05
303.15	49030	0.0005696	2.32e-05
303.15	98060	0.0008037	3.27e-05
303.15	147100	0.0010712	4.35e-05
303.15	196130	0.001389	5.65e-05
303.15	245160	0.0017442	7.09e-05
323.11	49030	0.0004816	1.96e-05
323.13	24510	0.0003966	1.61e-05
323.2	98060	0.0006613	2.69e-05
323.2	147100	0.00087	3.54e-05
323.21	196130	0.0011121	4.52e-05
323.25	98	0.0003107	1.26e-05
323.25	245160	0.0013779	5.6e-05
362.8	147100	0.0006488	2.64e-05
362.83	98060	0.0004956	2.01e-05
362.85	49030	0.0003626	1.47e-05
362.87	196130	0.0008089	3.29e-05
362.92	98	0.0002146	8.7e-06
362.98	245160	0.0009926	4.03e-05
363.07	24510	0.0002937	1.19e-05
391.93	147100	0.000531	2.16e-05
392	196130	0.0006621	2.69e-05
392	245160	0.0008047	3.27e-05
392.04	98060	0.0004119	1.67e-05
393.01	24510	0.0002366	9.6e-06
393.14	49030	0.0002965	1.21e-05
422.17	196130	0.0005591	2.27e-05
422.24	98060	0.0003479	1.41e-05
422.26	147100	0.0004464	1.81e-05
422.58	24510	0.0001951	7.9e-06
422.6	49030	0.0002476	1.01e-05
423.04	245160	0.0006699	2.72e-05
452.91	245160	0.000577	2.35e-05
453.04	196130	0.0004784	1.94e-05
453.1	147100	0.0003883	1.58e-05
453.16	98060	0.0003007	1.22e-05
453.24	49030	0.0002134	8.7e-06
453.4	24510	0.0001668	6.8e-06
470.1	49030	0.0002021	8.2e-06
470.19	24510	0.0001568	6.4e-06
470.19	98060	0.0002858	1.16e-05
470.19	147100	0.0003672	1.49e-05
470.57	196130	0.0004549	1.85e-05
470.61	245160	0.0005475	2.23e-05

System: heptane; phases: Liquid
Property: Mass density, kg/m3 (Liquid); method: Buoyancy - hydrostatic balance
Temperature, K	Pressure, kPa	Mass density, kg/m3	uncertainty
298.15	98	679.99	4.08
298.15	24510	702.85	4.22
298.15	49030	718.61	4.31
298.15	98060	741.52	4.45
298.15	147100	760.47	4.56
298.15	196130	780.16	4.68
298.15	245160	792.15	4.75
303.15	98	674.98	4.05
303.15	24510	697.11	4.18
303.15	49030	713.79	4.28
303.15	98060	739.05	4.43
303.15	147100	759.49	4.56
303.15	196130	777.85	4.67
303.15	245160	789.56	4.74
323.11	49030	701.18	4.21
323.13	24510	680.94	4.09
323.2	98060	731.08	4.39
323.2	147100	749.97	4.5
323.21	196130	768.38	4.61
323.25	98	659.16	3.96
323.25	245160	783.33	4.7
362.8	147100	731.67	4.39
362.83	98060	709.5	4.26
362.85	49030	675.9	4.06
362.87	196130	752.22	4.51
362.92	98	622.63	3.74
362.98	245160	769.76	4.62
363.07	24510	654.31	3.93
391.93	147100	717.73	4.31
392	196130	739.92	4.44
392	245160	759.27	4.56
392.04	98060	696.22	4.18
393.01	24510	634.69	3.81
393.14	49030	657.93	3.95
422.17	196130	729	4.37
422.24	98060	679.62	4.08
422.26	147100	704.75	4.23
422.58	24510	611.28	3.67
422.6	49030	638.89	3.83
423.04	245160	748.46	4.49
452.91	245160	734.45	4.41
453.04	196130	716.18	4.3
453.1	147100	689.71	4.14
453.16	98060	666.38	4
453.24	49030	621.56	3.73
453.4	24510	589.05	3.53
470.1	49030	611.78	3.67
470.19	24510	574.55	3.45
470.19	98060	658.7	3.95
470.19	147100	685.13	4.11
470.57	196130	709.79	4.26
470.61	245160	729.17	4.38
